

 <GENCASE>  Copyright (c) 2020 by Dr Jose M. Dominguez
 All rights reserved.

 DualSPHysics is an international collaboration between University of Vigo 
 (Spain) and University of Manchester (UK). 

 Redistribution and use in source and binary forms, with or without
 modification, are permitted provided that the following conditions
 are met:
 * Redistributions of source code must retain the above copyright
   notice, this list of conditions and the following disclaimer.
 * Redistributions in binary form must reproduce the above copyright
   notice, this list of conditions and the following disclaimer in the
   documentation and/or other materials provided with the distribution.
 * Neither the name of the DualSPHysics nor the names of its contributors
   may be used to endorse or promote products derived from this software
   without specific prior written permission.

 THIS SOFTWARE IS PROVIDED BY THE COPYRIGHT HOLDERS AND CONTRIBUTORS "AS IS"
 AND ANY EXPRESS OR IMPLIED WARRANTIES, INCLUDING, BUT NOT LIMITED TO, THE
 IMPLIED WARRANTIES OF MERCHANTABILITY AND FITNESS FOR A PARTICULAR PURPOSE
 ARE DISCLAIMED. IN NO EVENT SHALL THE COPYRIGHT OWNER BE LIABLE FOR ANY
 DIRECT, INDIRECT, INCIDENTAL, SPECIAL, EXEMPLARY, OR CONSEQUENTIAL DAMAGES
 (INCLUDING, BUT NOT LIMITED TO, PROCUREMENT OF SUBSTITUTE GOODS OR SERVICES;
 LOSS OF USE, DATA, OR PROFITS; OR BUSINESS INTERRUPTION) HOWEVER CAUSED AND
 ON ANY THEORY OF LIABILITY, WHETHER IN CONTRACT, STRICT LIABILITY, OR TORT
 (INCLUDING NEGLIGENCE OR OTHERWISE) ARISING IN ANY WAY OUT OF THE USE OF
 THIS SOFTWARE, EVEN IF ADVISED OF THE POSSIBILITY OF SUCH DAMAGE. 


GenCase v5.0.222 (16-11-2020) 
===============================
OmpThreads: 4

[LoadXMLInit]
List: MAIN

Total operations: 11
[LoadXMLInit-End  time:0.000s]

[Draw]
List of available variables: Gravity_x=[0]  Gravity_y=[0]  Gravity_z=[-9.81]  Rhop0=[204.08]  Dp=[0.01]  PosMin_x=[-1.3]  PosMin_y=[-1.3]  PosMin_z=[-0.0045]  PosMax_x=[1.3]  PosMax_y=[1.3]  PosMax_z=[1]  CaseName=["test_AOR"]  Data2D=[0]  Data2DPosy=[0]  H=[0.0173205]  MassBound=[0.00020408]  MassFluid=[0.00020408]

Mk size: 1 bytes
Case limits: (-1.3,-1.3,-0.0045) - (1.3,1.3,1)
Distance between points (Dp): 0.01
Case domain: (0,0,0)-(259,259,99)
Domain points: 260 x 260 x 100 = 6760000
Case parts: 1 x 100z
Memory: 0.01Gb 6.45Mb (6760000)

> MAIN
FileShapes> _Dp.vtk  shapes:145  points:104   (time:0.001s)
FileShapes> _Actual.vtk  shapes:145  points:104   (time:0.001s)
<MAIN (Operations= 8+3+1 = 12)

Triangles: 2 (0 ignored)
[Draw-End  time:0.009s]

[LoadsXMLConfig]
Execution parameters.
Initials configuration.
Floating bodies configuration.
Properties configuration.
Predefined motion configuration.
[LoadsXMLConfig-End  time:0.000s]

[PreparePoints]
Computing Vtk-Cells data...  (time:0.053s)
BitSizeTot: 19 (2 + 6+6+5)
Points loaded: 2785
Sorting points by Z...
Sorting points by Mk...

List of Points:
Points -> Fixed-Boundary particles:
  block[  0] (mk: 11):   1681  -->    1681
Points -> Moving-Boundary particles:
  block[  1] (mk: 10):    512  -->     512
Points -> Fluid particles:
  block[  2] (mk:  1):    592  -->     592

Particle summary:
  Fixed....: 1681  id:(0-1680)   MKs:1 (11)
  Moving...: 512  id:(1681-2192)   MKs:1 (10)
  Floating.: 0
  Fluid....: 592  id:(2193-2784)   MKs:1 (1)

Total particles: 2785 (bound=2193 (fx=1681 mv=512 ft=0) fluid=592)
Total MK blocks: 3 (bound=2 (fx=1 mv=1 ft=0) fluid=1)

Maximum depth: 0.15 (automatic)
Speed of system: 1.21305 (automatic)
Speed of sound: max(coefsound*speedsystem,10*sqrt(g*depth))
Speed of sound: 24.2611 max(24.2611,12.1305)
Speed of sound: 120 (fixed)

Coefh:1.000000 (hdp:1.732051)

[PreparePoints-End  time:0.058s]

[SaveCase3D]
test_AOR_out/test_AOR_MkCells.vtk  (time:0.001s, shapes:100, points:400)
test_AOR_out/test_AOR.bi4<double>  (time:0.000s)
test_AOR_out/test_AOR_All.vtk  (time: 0.002s)
test_AOR_out/test_AOR_Bound.vtk  (time: 0.001s)
test_AOR_out/test_AOR_Fluid.vtk  (time: 0.001s)
test_AOR_out/test_AOR.xml  (time:0.001s)

Save files time: 0.007s

Particle limits:
  X range: -0.2 to 0.2 [m]
  Y range: -0.2 to 0.2 [m]
  Z range: -0.0045 to 0.1555 [m]

[SaveCase3D-End  time:0.008s]


Finished execution (code=0).

