//HEAD_DSPH
/*
<DUALSPHYSICS>  Copyright (c) 2019 by Dr Jose M. Dominguez et al. (see http://dual.sphysics.org/index.php/developers/).

EPHYSLAB Environmental Physics Laboratory, Universidade de Vigo, Ourense, Spain.
School of Mechanical, Aerospace and Civil Engineering, University of Manchester, Manchester, U.K.

This file is part of DualSPHysics.

DualSPHysics is free software: you can redistribute it and/or modify it under the terms of the GNU Lesser General Public License
as published by the Free Software Foundation; either version 2.1 of the License, or (at your option) any later version.

DualSPHysics is distributed in the hope that it will be useful, but WITHOUT ANY WARRANTY; without even the implied warranty of
MERCHANTABILITY or FITNESS FOR A PARTICULAR PURPOSE.  See the GNU Lesser General Public License for more details.

You should have received a copy of the GNU Lesser General Public License along with DualSPHysics. If not, see <http://www.gnu.org/licenses/>.
*/

/// \file JSphGpu_ker.cu \brief Implements functions and CUDA kernels for the Particle Interaction and System Update.

#include "JSphGpu_NN_ker.h"
//#include <cfloat>
//#include <math_constants.h>

#define MAXNUMBERPHASE 10

__constant__ StPhaseCte PHASECTE[MAXNUMBERPHASE];
__constant__ StPhaseArray PHASEARRAY[MAXNUMBERPHASE];
// __constant__ StPhaseHypo PHASEHYPO[MAXNUMBERPHASE];
// __constant__ StPhaseElastic PHASEELASTIC[MAXNUMBERPHASE];

namespace cusphNN {
#include "FunctionsBasic_iker.h" //orig
#include "FunctionsMath_iker.h" //orig
#include "FunSphKernel_iker.h"
#include "FunSphEos_iker.h"
#undef _JCellSearch_iker_
#include "JCellSearch_iker.h"


//==============================================================================
/// Stores constants for the GPU interaction.
/// Graba constantes para la interaccion a la GPU.
//==============================================================================
void CteInteractionUp_NN(unsigned phasecount,const StPhaseCte *phasecte,const StPhaseArray *phasearray){
  cudaMemcpyToSymbol(PHASECTE,phasecte,sizeof(StPhaseCte)*phasecount);
  cudaMemcpyToSymbol(PHASEARRAY,phasearray,sizeof(StPhaseArray)*phasecount);
}
void CteInteractionUp_NN(unsigned phasecount, const StPhaseHypo *phasehypo){
  cudaMemcpyToSymbol(PHASEHYPO,phasehypo,sizeof(StPhaseHypo)*phasecount);
}

void CteInteractionUp_NN(unsigned phasecount, const StPhaseElastic *phaseelastic){
  cudaMemcpyToSymbol(PHASEELASTIC,phaseelastic,sizeof(StPhaseElastic)*phasecount);
}
//------------------------------------------------------------------------------
/// Doubles the position of the indicated particle using a displacement.
/// Duplicate particles are considered valid and are always within
/// the domain.
/// This kernel applies to single-GPU and multi-GPU because the calculations are made
/// from domposmin.
/// It controls the cell coordinates not exceed the maximum.
///
/// Duplica la posicion de la particula indicada aplicandole un desplazamiento.
/// Las particulas duplicadas se considera que siempre son validas y estan dentro
/// del dominio.
/// Este kernel vale para single-gpu y multi-gpu porque los calculos se hacen 
/// a partir de domposmin.
/// Se controla que las coordendas de celda no sobrepasen el maximo.
//------------------------------------------------------------------------------
__device__ void KerPeriodicDuplicatePos(unsigned pnew,unsigned pcopy
  ,bool inverse,double dx,double dy,double dz,uint3 cellmax
  ,double2 *posxy,double *posz,unsigned *dcell)
{
  //-Obtains position of the particle to be duplicated.
  //-Obtiene pos de particula a duplicar.
  double2 rxy=posxy[pcopy];
  double rz=posz[pcopy];
  //-Applies displacement.
  rxy.x+=(inverse ? -dx : dx);
  rxy.y+=(inverse ? -dy : dy);
  rz+=(inverse ? -dz : dz);
  //-Computes cell coordinates within the domain.
  //-Calcula coordendas de celda dentro de dominio.
  unsigned cx=unsigned((rxy.x-CTE.domposminx)/CTE.scell);
  unsigned cy=unsigned((rxy.y-CTE.domposminy)/CTE.scell);
  unsigned cz=unsigned((rz-CTE.domposminz)/CTE.scell);
  //-Adjust cell coordinates if they exceed the maximum.
  //-Ajusta las coordendas de celda si sobrepasan el maximo.
  cx=(cx<=cellmax.x ? cx : cellmax.x);
  cy=(cy<=cellmax.y ? cy : cellmax.y);
  cz=(cz<=cellmax.z ? cz : cellmax.z);
  //-Stores position and cell of the new particles.
  //-Graba posicion y celda de nuevas particulas.
  posxy[pnew]=rxy;
  posz[pnew]=rz;
  dcell[pnew]=PC__Cell(CTE.cellcode,cx,cy,cz);
}
//------------------------------------------------------------------------------
/// Creates periodic particles from a list of particles to duplicate for non-Newtonian models.
/// It is assumed that all particles are valid.
/// This kernel applies to single-GPU and multi-GPU because it uses domposmin.
///
/// Crea particulas periodicas a partir de una lista con las particulas a duplicar.
/// Se presupone que todas las particulas son validas.
/// Este kernel vale para single-gpu y multi-gpu porque usa domposmin. 
//------------------------------------------------------------------------------
template<bool varspre> __global__ void KerPeriodicDuplicateSymplectic_NN(unsigned n,unsigned pini
  ,uint3 cellmax,double3 perinc,const unsigned *listp,unsigned *idp,typecode *code,unsigned *dcell
  ,double2 *posxy,double *posz,float4 *velrhop,float *auxnn,double2 *posxypre,double *poszpre,float4 *velrhoppre)
{
  const unsigned p=blockIdx.x*blockDim.x+threadIdx.x; //-Number of particle.
  if(p<n) {
    const unsigned pnew=p+pini;
    const unsigned rp=listp[p];
    const unsigned pcopy=(rp&0x7FFFFFFF);
    //-Adjusts cell position of the new particles.
    //-Ajusta posicion y celda de nueva particula.
    KerPeriodicDuplicatePos(pnew,pcopy,(rp>=0x80000000),perinc.x,perinc.y,perinc.z,cellmax,posxy,posz,dcell);
    //-Copies the remaining data.
    //-Copia el resto de datos.
    idp[pnew]=idp[pcopy];
    code[pnew]=CODE_SetPeriodic(code[pcopy]);
    velrhop[pnew]=velrhop[pcopy];
    if(varspre) {
      posxypre[pnew]=posxypre[pcopy];
      poszpre[pnew]=poszpre[pcopy];
      velrhoppre[pnew]=velrhoppre[pcopy];
    }
    if(auxnn)auxnn[pnew]=auxnn[pcopy];
  }
}

//==============================================================================
/// Creates periodic particles from a list of particles to duplicate for non-Newotnian formulation..
/// Crea particulas periodicas a partir de una lista con las particulas a duplicar.
//==============================================================================
void PeriodicDuplicateSymplectic(unsigned n,unsigned pini
  ,tuint3 domcells,tdouble3 perinc,const unsigned *listp,unsigned *idp,typecode *code,unsigned *dcell
  ,double2 *posxy,double *posz,float4 *velrhop,float *auxnn,double2 *posxypre,double *poszpre,float4 *velrhoppre)
{
  if(n) {
    uint3 cellmax=make_uint3(domcells.x-1,domcells.y-1,domcells.z-1);
    dim3 sgrid=GetSimpleGridSize(n,SPHBSIZE);
    if(posxypre!=NULL)KerPeriodicDuplicateSymplectic_NN<true><<<sgrid,SPHBSIZE>>>(n,pini,cellmax,Double3(perinc),listp,idp,code,dcell,posxy,posz,velrhop,auxnn,posxypre,poszpre,velrhoppre);
    else                 KerPeriodicDuplicateSymplectic_NN<false><<<sgrid,SPHBSIZE>>>(n,pini,cellmax,Double3(perinc),listp,idp,code,dcell,posxy,posz,velrhop,auxnn,posxypre,poszpre,velrhoppre);
  }
}

//------------------------------------------------------------------------------
/// Creates periodic particles from a list of particles to duplicate.
/// It is assumed that all particles are valid.
/// This kernel applies to single-GPU and multi-GPU because it uses domposmin.
///
/// Crea particulas periodicas a partir de una lista con las particulas a duplicar.
/// Se presupone que todas las particulas son validas.
/// Este kernel vale para single-gpu y multi-gpu porque usa domposmin. 
//------------------------------------------------------------------------------
/*
__global__ void KerPeriodicDuplicateVerlet(unsigned n,unsigned pini,uint3 cellmax,double3 perinc
  ,const unsigned *listp,unsigned *idp,typecode *code,unsigned *dcell
  ,double2 *posxy,double *posz,float4 *velrhop,float *auxnn,float4 *velrhopm1)
{
  const unsigned p=blockIdx.x*blockDim.x+threadIdx.x; //-Number of particle.
  if(p<n) {
    const unsigned pnew=p+pini;
    const unsigned rp=listp[p];
    const unsigned pcopy=(rp&0x7FFFFFFF);
    //-Adjusts cell position of the new particles.
    //-Ajusta posicion y celda de nueva particula.
    KerPeriodicDuplicatePos(pnew,pcopy,(rp>=0x80000000),perinc.x,perinc.y,perinc.z,cellmax,posxy,posz,dcell);
    //-Copies the remaining data.
    //-Copia el resto de datos.
    idp[pnew]=idp[pcopy];
    code[pnew]=CODE_SetPeriodic(code[pcopy]);
    velrhop[pnew]=velrhop[pcopy];
    velrhopm1[pnew]=velrhopm1[pcopy];
    if(auxnn)auxnn[pnew]=auxnn[pcopy];
  }
}
*/
//==============================================================================
/// Creates periodic particles from a list of particles to duplicate.
/// Crea particulas periodicas a partir de una lista con las particulas a duplicar.
//==============================================================================
/*
void PeriodicDuplicateVerlet(unsigned n,unsigned pini,tuint3 domcells,tdouble3 perinc
  ,const unsigned *listp,unsigned *idp,typecode *code,unsigned *dcell
  ,double2 *posxy,double *posz,float4 *velrhop,float *auxnn,float4 *velrhopm1)
{
  if(n) {
    uint3 cellmax=make_uint3(domcells.x-1,domcells.y-1,domcells.z-1);
    dim3 sgrid=GetSimpleGridSize(n,SPHBSIZE);
    KerPeriodicDuplicateVerlet<<<sgrid,SPHBSIZE>>>(n,pini,cellmax,Double3(perinc),listp,idp,code,dcell,posxy,posz,velrhop,auxnn,velrhopm1);
  }
}
*/
//##############################################################################
//# Kernels for calculating NN Tensors.
//# Kernels para calcular tensores.
//##############################################################################
//------------------------------------------------------------------------------
/// Velocity gradients for non-Newtonian models using FDAs approach.
/// Gradientes de velocidad usando FDAs.
//------------------------------------------------------------------------------
/*
__device__ void GetVelocityGradients_FDA(float rr2,float drx,float dry,float drz
  ,float dvx,float dvy,float dvz,tmatrix3f &dvelp1,float &div_vel)
{
  //vel gradients
  dvelp1.a11=dvx*drx/rr2; dvelp1.a12=dvx*dry/rr2; dvelp1.a13=dvx*drz/rr2; //Fan et al., 2010
  dvelp1.a21=dvy*drx/rr2; dvelp1.a22=dvy*dry/rr2; dvelp1.a23=dvy*drz/rr2;
  dvelp1.a31=dvz*drx/rr2; dvelp1.a32=dvz*dry/rr2; dvelp1.a33=dvz*drz/rr2;
  div_vel=(dvelp1.a11+dvelp1.a22+dvelp1.a33)/3.f;
}
*/
//==============================================================================
//symetric tensors
//==============================================================================
/// Calculates the Stress Tensor (symetric)
/// Obtener tensor de velocidad de deformacion symetric.
//==============================================================================

__device__ void GetStressTensor_sym(float2 &d_p1_xx_xy,float2 &d_p1_xz_yy,float2 &d_p1_yz_zz,float visco_etap1
  ,float &I_t,float &II_t,float &J1_t,float &J2_t,float &tau_tensor_magn
  ,float2 &tau_xx_xy,float2 &tau_xz_yy,float2 &tau_yz_zz)
{
  //Stress tensor and invariant
  tau_xx_xy.x=2.f*visco_etap1*(d_p1_xx_xy.x);	tau_xx_xy.y=2.f*visco_etap1*d_p1_xx_xy.y;		tau_xz_yy.x=2.f*visco_etap1*d_p1_xz_yy.x;
  tau_xz_yy.y=2.f*visco_etap1*(d_p1_xz_yy.y);	tau_yz_zz.x=2.f*visco_etap1*d_p1_yz_zz.x;
  tau_yz_zz.y=2.f*visco_etap1*(d_p1_yz_zz.y);
  //I_t - the first invariant -
  I_t=tau_xx_xy.x+tau_xz_yy.y+tau_yz_zz.y;
  //II_t - the second invariant - expnaded form witout symetry 
  float II_t_1=tau_xx_xy.x*tau_xz_yy.y+tau_xz_yy.y*tau_yz_zz.y+tau_xx_xy.x*tau_yz_zz.y;
  float II_t_2=tau_xx_xy.y*tau_xx_xy.y+tau_yz_zz.x*tau_yz_zz.x+tau_xz_yy.x*tau_xz_yy.x;
  II_t=-II_t_1+II_t_2;
  //stress tensor magnitude
  tau_tensor_magn=sqrt(II_t);
  //if (II_t < 0.f) {
  //	printf("****tau_tensor_magn is negative**** \n");
  //}
  //Main Stress rate invariants
  J1_t=I_t; J2_t=I_t*I_t-2.f*II_t;
}

//==============================================================================
/// Calculates the Strain Rate Tensor (symetric).
/// Obtener tensor de velocidad de deformacion symetric.
//==============================================================================
__device__ void GetStrainRateTensor_tsym(float3 &dvelp1_xx_xy_xz,float3 &dvelp1_yx_yy_yz,float3 &dvelp1_zx_zy_zz
  ,float &I_D,float &II_D,float &J1_D,float &J2_D,float &div_D_tensor,float &D_tensor_magn
  ,float2 &D_tensor_xx_xy,float2 &D_tensor_xz_yy,float2 &D_tensor_yz_zz)
{
  //Strain tensor and invariant	
  float div_vel=(dvelp1_xx_xy_xz.x+dvelp1_yx_yy_yz.y+dvelp1_zx_zy_zz.z)/3.f;
  D_tensor_xx_xy.x=dvelp1_xx_xy_xz.x-div_vel;		D_tensor_xx_xy.y=0.5f*(dvelp1_xx_xy_xz.y+dvelp1_yx_yy_yz.x);		D_tensor_xz_yy.x=0.5f*(dvelp1_zx_zy_zz.x+dvelp1_xx_xy_xz.z);
  D_tensor_xz_yy.y=dvelp1_yx_yy_yz.y-div_vel;	  D_tensor_yz_zz.x=0.5f*(dvelp1_zx_zy_zz.y+dvelp1_yx_yy_yz.z);
  D_tensor_yz_zz.y=dvelp1_zx_zy_zz.z-div_vel;
  //the off-diagonal entries of velocity gradients are i.e. 0.5f*(du/dy+dvdx) with dvelp1.xy=du/dy+dvdx
  div_D_tensor=(D_tensor_xx_xy.x+D_tensor_xz_yy.y+D_tensor_yz_zz.y)/3.f;

  ////I_D - the first invariant -
  I_D=D_tensor_xx_xy.x+D_tensor_xz_yy.y+D_tensor_yz_zz.y;
  //II_D - the second invariant - expnaded form witout symetry 
  float II_D_1=D_tensor_xx_xy.x*D_tensor_xz_yy.y+D_tensor_xz_yy.y*D_tensor_yz_zz.y+D_tensor_xx_xy.x*D_tensor_yz_zz.y;
  float II_D_2=D_tensor_xx_xy.y*D_tensor_xx_xy.y+D_tensor_yz_zz.x*D_tensor_yz_zz.x+D_tensor_xz_yy.x*D_tensor_xz_yy.x;
  II_D=-II_D_1+II_D_2;
  ////deformation tensor magnitude
  D_tensor_magn=sqrt((II_D));

  //Main Strain rate invariants
  J1_D=I_D; J2_D=I_D*I_D-2.f*II_D;
}

//==============================================================================
/// Velocity gradients using SPH approach.
/// Gradientes de velocidad usando SPH.
//==============================================================================
__device__ void GetVelocityGradients_SPH_tsym(float massp2,const float4 &velrhop2,float dvx,float dvy,float dvz,float frx,float fry,float frz
  ,float3 &grap1_xx_xy_xz,float3 &grap1_yx_yy_yz,float3 &grap1_zx_zy_zz)
{
  ///SPH vel gradients calculation
  const float volp2=-massp2/velrhop2.w;
  float dv=dvx*volp2;  grap1_xx_xy_xz.x+=dv*frx;  grap1_xx_xy_xz.y+=dv*fry; grap1_xx_xy_xz.z+=dv*frz;
        dv=dvy*volp2;  grap1_yx_yy_yz.x+=dv*frx;	grap1_yx_yy_yz.y+=dv*fry; grap1_yx_yy_yz.z+=dv*frz;
        dv=dvz*volp2;  grap1_zx_zy_zz.x+=dv*frx;  grap1_zx_zy_zz.y+=dv*fry; grap1_zx_zy_zz.z+=dv*frz;
}

//==============================================================================
/// Calculate strain rate tensor (full matrix).
/// Obtener tensor de velocidad de deformacion (full matrix).
//==============================================================================
/*
__device__ void GetStrainRateTensor(const tmatrix3f &dvelp1,float div_vel,float &I_D,float &II_D,float &J1_D
  ,float &J2_D,float &div_D_tensor,float &D_tensor_magn,tmatrix3f &D_tensor)
{
  //Strain tensor and invariant
  D_tensor.a11=dvelp1.a11-div_vel;          D_tensor.a12=0.5f*(dvelp1.a12+dvelp1.a21);      D_tensor.a13=0.5f*(dvelp1.a13+dvelp1.a31);
  D_tensor.a21=0.5f*(dvelp1.a21+dvelp1.a12);      D_tensor.a22=dvelp1.a22-div_vel;          D_tensor.a23=0.5f*(dvelp1.a23+dvelp1.a32);
  D_tensor.a31=0.5f*(dvelp1.a31+dvelp1.a13);      D_tensor.a32=0.5f*(dvelp1.a32+dvelp1.a23);      D_tensor.a33=dvelp1.a33-div_vel;
  div_D_tensor=(D_tensor.a11+D_tensor.a22+D_tensor.a33)/3.f;

  //I_D - the first invariant -
  I_D=D_tensor.a11+D_tensor.a22+D_tensor.a33;
  //II_D - the second invariant - expnaded form witout symetry 
  float II_D_1=D_tensor.a11*D_tensor.a22+D_tensor.a22*D_tensor.a33+D_tensor.a11*D_tensor.a33;
  float II_D_2=D_tensor.a12*D_tensor.a21+D_tensor.a23*D_tensor.a32+D_tensor.a13*D_tensor.a31;
  II_D=II_D_1-II_D_2;
  //deformation tensor magnitude
  D_tensor_magn=sqrt((II_D*II_D));

  //Main Strain rate invariants
  J1_D=I_D; J2_D=I_D*I_D-2.f*II_D;
}
*/
//==============================================================================
/// Calculate strain rate tensor and the spin rate tensor (full matrix).
//==============================================================================
__device__ void GetStrainSpinRateTensor(float3 &dvelp1_xx_xy_xz,float3 &dvelp1_yx_yy_yz,float3 &dvelp1_zx_zy_zz
  ,float2 &D_tensor_xx_xy,float2 &D_tensor_xz_yy,float2 &D_tensor_yz_zz, float3 &W_tensor_xyz)
{
  //Strain tensor
  D_tensor_xx_xy.x=dvelp1_xx_xy_xz.x;		
  D_tensor_xz_yy.y=dvelp1_yx_yy_yz.y;	  
  D_tensor_yz_zz.y=dvelp1_zx_zy_zz.z;
  D_tensor_xx_xy.y=0.5f*(dvelp1_xx_xy_xz.y+dvelp1_yx_yy_yz.x);
  D_tensor_xz_yy.x=0.5f*(dvelp1_xx_xy_xz.z+dvelp1_zx_zy_zz.x);
  D_tensor_yz_zz.x=0.5f*(dvelp1_yx_yy_yz.z+dvelp1_zx_zy_zz.y);

  //Full spin tensor
  W_tensor_xyz.x = 0.5f*(dvelp1_xx_xy_xz.y-dvelp1_yx_yy_yz.x);
  W_tensor_xyz.y = 0.5f*(dvelp1_xx_xy_xz.z-dvelp1_zx_zy_zz.x);
  W_tensor_xyz.z = 0.5f*(dvelp1_yx_yy_yz.z-dvelp1_zx_zy_zz.y);
}

//==============================================================================
/// Calculates the stress Tensor from hypoplastic model
//==============================================================================
__device__ void GetStressTensorHypo(float2 &dtsrp1_xx_xy, float2 &dtsrp1_xz_yy, float2 &dtsrp1_yz_zz, float3 &dtspinrate_xyz
  ,float2 &taup1_xx_xy_old, float2 &taup1_xz_yy_old, float2 &taup1_yz_zz_old
  ,float2 &taup1_xx_xy, float2 &taup1_xz_yy, float2 &taup1_yz_zz
  ,float2 &taup1_diff_xx_xy, float2 &taup1_diff_xz_yy, float2 &taup1_diff_yz_zz
  ,float &voidRatio, double &dt, const float &Hypo_angle, const float &Hypo_hs, const float &Hypo_n
  ,const float &Hypo_ed0, const float &Hypo_ec0, const float &Hypo_ei0, const float &Hypo_alpha, const float &Hypo_beta, bool regularize, bool stop)
{
  tmatrix3f D_tensor = {dtsrp1_xx_xy.x, dtsrp1_xx_xy.y, dtsrp1_xz_yy.x, 
                        dtsrp1_xx_xy.y, dtsrp1_xz_yy.y, dtsrp1_yz_zz.x, 
                        dtsrp1_xz_yy.x, dtsrp1_yz_zz.x, dtsrp1_yz_zz.y};
  tmatrix3f W_tensor = {0, dtspinrate_xyz.x, dtspinrate_xyz.y,
                        -dtspinrate_xyz.x, 0, dtspinrate_xyz.z,
                        -dtspinrate_xyz.y, -dtspinrate_xyz.z,0};
  tmatrix3f SigmaOld_tensor= {taup1_xx_xy_old.x,  taup1_xx_xy_old.y, taup1_xz_yy_old.x, 
                              taup1_xx_xy_old.y,  taup1_xz_yy_old.y, taup1_yz_zz_old.x, 
                              taup1_xz_yy_old.x,  taup1_yz_zz_old.x, taup1_yz_zz_old.y};

  float TrSigma = taup1_xx_xy_old.x+taup1_xz_yy_old.y+taup1_yz_zz_old.y; //Sigma_kk
  // convert stress vector to full stress tensor
  tmatrix3f Ts_tensor;
  Ts_tensor.a11 = SigmaOld_tensor.a11/TrSigma;
  Ts_tensor.a22 = SigmaOld_tensor.a22/TrSigma;
  Ts_tensor.a33 = SigmaOld_tensor.a33/TrSigma;
  Ts_tensor.a12 = SigmaOld_tensor.a12/TrSigma;
  Ts_tensor.a21 = SigmaOld_tensor.a21/TrSigma;
  Ts_tensor.a13 = SigmaOld_tensor.a13/TrSigma;
  Ts_tensor.a31 = SigmaOld_tensor.a31/TrSigma;
  Ts_tensor.a23 = SigmaOld_tensor.a23/TrSigma;
  Ts_tensor.a32 = SigmaOld_tensor.a32/TrSigma;
  
  tmatrix3f Ts2_tensor;
  Ts2_tensor.a11 = Ts_tensor.a11*Ts_tensor.a11+Ts_tensor.a12*Ts_tensor.a21+Ts_tensor.a13*Ts_tensor.a31;
  Ts2_tensor.a12 = Ts_tensor.a11*Ts_tensor.a12+Ts_tensor.a12*Ts_tensor.a22+Ts_tensor.a13*Ts_tensor.a32;
  Ts2_tensor.a13 = Ts_tensor.a11*Ts_tensor.a13+Ts_tensor.a12*Ts_tensor.a23+Ts_tensor.a13*Ts_tensor.a33;
  Ts2_tensor.a21 = Ts_tensor.a21*Ts_tensor.a11+Ts_tensor.a22*Ts_tensor.a21+Ts_tensor.a23*Ts_tensor.a31;
  Ts2_tensor.a22 = Ts_tensor.a21*Ts_tensor.a12+Ts_tensor.a22*Ts_tensor.a22+Ts_tensor.a23*Ts_tensor.a32;
  Ts2_tensor.a23 = Ts_tensor.a21*Ts_tensor.a13+Ts_tensor.a22*Ts_tensor.a23+Ts_tensor.a23*Ts_tensor.a33;
  Ts2_tensor.a31 = Ts_tensor.a31*Ts_tensor.a11+Ts_tensor.a32*Ts_tensor.a21+Ts_tensor.a33*Ts_tensor.a31;
  Ts2_tensor.a32 = Ts_tensor.a31*Ts_tensor.a12+Ts_tensor.a32*Ts_tensor.a22+Ts_tensor.a33*Ts_tensor.a32;
  Ts2_tensor.a33 = Ts_tensor.a31*Ts_tensor.a13+Ts_tensor.a32*Ts_tensor.a23+Ts_tensor.a33*Ts_tensor.a33;
  float TrTs2 =Ts2_tensor.a11+Ts2_tensor.a22+Ts2_tensor.a33;

  tmatrix3f Tsv_tensor; //normalized deviatoric stress tensor sigmaHeadStar_ij
  float OneOverThree = 1.0/3.0;
  Tsv_tensor.a11 = Ts_tensor.a11 - OneOverThree;
  Tsv_tensor.a12 = Ts_tensor.a12;
  Tsv_tensor.a13 = Ts_tensor.a13;
  Tsv_tensor.a21 = Ts_tensor.a21;
  Tsv_tensor.a22 = Ts_tensor.a22 - OneOverThree;
  Tsv_tensor.a23 = Ts_tensor.a23;
  Tsv_tensor.a31 = Ts_tensor.a31;
  Tsv_tensor.a32 = Ts_tensor.a32;
  Tsv_tensor.a33 = Ts_tensor.a33 - OneOverThree;

  tmatrix3f Tsv2_tensor, Tsv3_tensor;
  Tsv2_tensor.a11 = Tsv_tensor.a11*Tsv_tensor.a11+Tsv_tensor.a12*Tsv_tensor.a21+Tsv_tensor.a13*Tsv_tensor.a31;
  Tsv2_tensor.a12 = Tsv_tensor.a11*Tsv_tensor.a12+Tsv_tensor.a12*Tsv_tensor.a22+Tsv_tensor.a13*Tsv_tensor.a32;
  Tsv2_tensor.a13 = Tsv_tensor.a11*Tsv_tensor.a13+Tsv_tensor.a12*Tsv_tensor.a23+Tsv_tensor.a13*Tsv_tensor.a33;
  Tsv2_tensor.a21 = Tsv_tensor.a21*Tsv_tensor.a11+Tsv_tensor.a22*Tsv_tensor.a21+Tsv_tensor.a23*Tsv_tensor.a31;
  Tsv2_tensor.a22 = Tsv_tensor.a21*Tsv_tensor.a12+Tsv_tensor.a22*Tsv_tensor.a22+Tsv_tensor.a23*Tsv_tensor.a32;
  Tsv2_tensor.a23 = Tsv_tensor.a21*Tsv_tensor.a13+Tsv_tensor.a22*Tsv_tensor.a23+Tsv_tensor.a23*Tsv_tensor.a33;
  Tsv2_tensor.a31 = Tsv_tensor.a31*Tsv_tensor.a11+Tsv_tensor.a32*Tsv_tensor.a21+Tsv_tensor.a33*Tsv_tensor.a31;
  Tsv2_tensor.a32 = Tsv_tensor.a31*Tsv_tensor.a12+Tsv_tensor.a32*Tsv_tensor.a22+Tsv_tensor.a33*Tsv_tensor.a32;
  Tsv2_tensor.a33 = Tsv_tensor.a31*Tsv_tensor.a13+Tsv_tensor.a32*Tsv_tensor.a23+Tsv_tensor.a33*Tsv_tensor.a33;

  Tsv3_tensor.a11 = Tsv2_tensor.a11*Tsv_tensor.a11+Tsv2_tensor.a12*Tsv_tensor.a21+Tsv2_tensor.a13*Tsv_tensor.a31;
  Tsv3_tensor.a12 = Tsv2_tensor.a11*Tsv_tensor.a12+Tsv2_tensor.a12*Tsv_tensor.a22+Tsv2_tensor.a13*Tsv_tensor.a32;
  Tsv3_tensor.a13 = Tsv2_tensor.a11*Tsv_tensor.a13+Tsv2_tensor.a12*Tsv_tensor.a23+Tsv2_tensor.a13*Tsv_tensor.a33;
  Tsv3_tensor.a21 = Tsv2_tensor.a21*Tsv_tensor.a11+Tsv2_tensor.a22*Tsv_tensor.a21+Tsv2_tensor.a23*Tsv_tensor.a31;
  Tsv3_tensor.a22 = Tsv2_tensor.a21*Tsv_tensor.a12+Tsv2_tensor.a22*Tsv_tensor.a22+Tsv2_tensor.a23*Tsv_tensor.a32;
  Tsv3_tensor.a23 = Tsv2_tensor.a21*Tsv_tensor.a13+Tsv2_tensor.a22*Tsv_tensor.a23+Tsv2_tensor.a23*Tsv_tensor.a33;
  Tsv3_tensor.a31 = Tsv2_tensor.a31*Tsv_tensor.a11+Tsv2_tensor.a32*Tsv_tensor.a21+Tsv2_tensor.a33*Tsv_tensor.a31;
  Tsv3_tensor.a32 = Tsv2_tensor.a31*Tsv_tensor.a12+Tsv2_tensor.a32*Tsv_tensor.a22+Tsv2_tensor.a33*Tsv_tensor.a32;
  Tsv3_tensor.a33 = Tsv2_tensor.a31*Tsv_tensor.a13+Tsv2_tensor.a32*Tsv_tensor.a23+Tsv2_tensor.a33*Tsv_tensor.a33;

  float TrTsv2 = Tsv2_tensor.a11+Tsv2_tensor.a22+Tsv2_tensor.a33;
  float TrTsv3 = Tsv3_tensor.a11+Tsv3_tensor.a22+Tsv3_tensor.a33;
  float sinphi = sin(Hypo_angle*PI/180);
  float sq2 = sqrt(2.0);
  float sq3 = sqrt(3.0);
  float sq6 = sqrt(6.0);
  float c3t; //Lode angle cos(3*theta)
  if (TrTsv2<=1E-10){
    c3t = 1.0;
  }else{
    c3t = -sq6*TrTsv3/pow(TrTsv2, 1.5);
    if (c3t > 1.0)  c3t =  1;
    if (c3t < -1.0) c3t = -1;
  }
  float c1 = sq3*( 3-sinphi )/( 2*sq2*sinphi );
  float c2 = 3*( 3+sinphi )/( 8*sinphi );
  float a1 = 1/(c1+c2*sqrt(TrTsv2)*(1+c3t));

  float ed = Hypo_ed0*exp(-pow((-TrSigma/Hypo_hs),Hypo_n));
  float ec = Hypo_ec0*exp(-pow((-TrSigma/Hypo_hs),Hypo_n));
  float ei = Hypo_ei0*exp(-pow((-TrSigma/Hypo_hs),Hypo_n));
  
  //if (voidRatio<ed){
    //Log->Printf("void ratio e = %f is less than the minimum void ratio at current stress ed = %f ", voidRatio, ed);
    //printf(">> current e=%f  current ed=%f\n",voidRatio,ed);
    //voidRatio = ed;
  //}
   
  if (voidRatio>ei){
    //Log->Printf("void ratio e = %f is more than the maximum void ratio at current stress ei = %f ", voidRatio, ei);
    voidRatio = ei;
  } 

  float fe = pow(ec/voidRatio,Hypo_beta);
  float hi = 1/pow(c1, 2) + OneOverThree - pow((Hypo_ei0-Hypo_ed0)/(Hypo_ec0-Hypo_ed0),Hypo_alpha)/c1/sq3; 
  //float fb = Hypo_hs / Hypo_n / hi * (1 + ei) / ei * pow(-TrSigma / Hypo_hs, 1 - Hypo_n); 
  float fb = Hypo_hs / Hypo_n / hi * (1 + ei) / ei *pow(Hypo_ei0/Hypo_ec0,Hypo_beta)* pow(-TrSigma / Hypo_hs, 1 - Hypo_n); 
  float term5 = Ts_tensor.a11*D_tensor.a11 + Ts_tensor.a12*D_tensor.a12 + Ts_tensor.a13*D_tensor.a13 + Ts_tensor.a21*D_tensor.a21 + Ts_tensor.a22*D_tensor.a22 + Ts_tensor.a23*D_tensor.a23 + Ts_tensor.a31*D_tensor.a31 + Ts_tensor.a32*D_tensor.a32 + Ts_tensor.a33*D_tensor.a33;
  float term6 = sqrt(D_tensor.a11*D_tensor.a11 + D_tensor.a12*D_tensor.a12 + D_tensor.a13*D_tensor.a13 + D_tensor.a21*D_tensor.a21 + D_tensor.a22*D_tensor.a22 + D_tensor.a23*D_tensor.a23 + D_tensor.a31*D_tensor.a31 + D_tensor.a32*D_tensor.a32 + D_tensor.a33*D_tensor.a33);

  float fs = fb*fe;
  float fd = ( voidRatio-ed )/( ec-ed );
  if (fd>0){
    fd=pow(fd, Hypo_alpha);
  }else{
    fd=0;
  }

  tmatrix3f FLL, FNN, sigma_rate, tau_tensor;
  FLL.a11 = pow(a1,2)*D_tensor.a11 + term5*Ts_tensor.a11;
  FLL.a12 = pow(a1,2)*D_tensor.a12 + term5*Ts_tensor.a12;
  FLL.a13 = pow(a1,2)*D_tensor.a13 + term5*Ts_tensor.a13;
  FLL.a21 = pow(a1,2)*D_tensor.a21 + term5*Ts_tensor.a21;
  FLL.a22 = pow(a1,2)*D_tensor.a22 + term5*Ts_tensor.a22;
  FLL.a23 = pow(a1,2)*D_tensor.a23 + term5*Ts_tensor.a23;
  FLL.a31 = pow(a1,2)*D_tensor.a31 + term5*Ts_tensor.a31;
  FLL.a32 = pow(a1,2)*D_tensor.a32 + term5*Ts_tensor.a32;
  FLL.a33 = pow(a1,2)*D_tensor.a33 + term5*Ts_tensor.a33;

  FNN.a11  = a1*(Ts_tensor.a11+Tsv_tensor.a11);
  FNN.a12  = a1*(Ts_tensor.a12+Tsv_tensor.a12);
  FNN.a13  = a1*(Ts_tensor.a13+Tsv_tensor.a13);
  FNN.a21  = a1*(Ts_tensor.a21+Tsv_tensor.a21);
  FNN.a22  = a1*(Ts_tensor.a22+Tsv_tensor.a22);
  FNN.a23  = a1*(Ts_tensor.a23+Tsv_tensor.a23);
  FNN.a31  = a1*(Ts_tensor.a31+Tsv_tensor.a31);
  FNN.a32  = a1*(Ts_tensor.a32+Tsv_tensor.a32);
  FNN.a33  = a1*(Ts_tensor.a33+Tsv_tensor.a33);

  //Stress tensor and invariant   
  sigma_rate.a11 = fs*(FLL.a11+fd*term6*FNN.a11);
  sigma_rate.a12 = fs*(FLL.a12+fd*term6*FNN.a12);
  sigma_rate.a13 = fs*(FLL.a13+fd*term6*FNN.a13);
  sigma_rate.a21 = fs*(FLL.a21+fd*term6*FNN.a21);
  sigma_rate.a22 = fs*(FLL.a22+fd*term6*FNN.a22);
  sigma_rate.a23 = fs*(FLL.a23+fd*term6*FNN.a23);
  sigma_rate.a31 = fs*(FLL.a31+fd*term6*FNN.a31);
  sigma_rate.a32 = fs*(FLL.a32+fd*term6*FNN.a32);
  sigma_rate.a33 = fs*(FLL.a33+fd*term6*FNN.a33);

  //Rotation
  sigma_rate.a11 = sigma_rate.a11 + (W_tensor.a11*SigmaOld_tensor.a11+W_tensor.a12*SigmaOld_tensor.a21+W_tensor.a13*SigmaOld_tensor.a31) - (SigmaOld_tensor.a11*W_tensor.a11+SigmaOld_tensor.a12*W_tensor.a21+SigmaOld_tensor.a13*W_tensor.a31);
  sigma_rate.a12 = sigma_rate.a12 + (W_tensor.a11*SigmaOld_tensor.a12+W_tensor.a12*SigmaOld_tensor.a22+W_tensor.a13*SigmaOld_tensor.a32) - (SigmaOld_tensor.a11*W_tensor.a12+SigmaOld_tensor.a12*W_tensor.a22+SigmaOld_tensor.a13*W_tensor.a32);
  sigma_rate.a13 = sigma_rate.a13 + (W_tensor.a11*SigmaOld_tensor.a13+W_tensor.a12*SigmaOld_tensor.a23+W_tensor.a13*SigmaOld_tensor.a33) - (SigmaOld_tensor.a11*W_tensor.a13+SigmaOld_tensor.a12*W_tensor.a23+SigmaOld_tensor.a13*W_tensor.a33);
  sigma_rate.a21 = sigma_rate.a21 + (W_tensor.a21*SigmaOld_tensor.a11+W_tensor.a22*SigmaOld_tensor.a21+W_tensor.a23*SigmaOld_tensor.a31) - (SigmaOld_tensor.a21*W_tensor.a11+SigmaOld_tensor.a22*W_tensor.a21+SigmaOld_tensor.a23*W_tensor.a31);
  sigma_rate.a22 = sigma_rate.a22 + (W_tensor.a21*SigmaOld_tensor.a12+W_tensor.a22*SigmaOld_tensor.a22+W_tensor.a23*SigmaOld_tensor.a32) - (SigmaOld_tensor.a21*W_tensor.a12+SigmaOld_tensor.a22*W_tensor.a22+SigmaOld_tensor.a23*W_tensor.a32);
  sigma_rate.a23 = sigma_rate.a23 + (W_tensor.a21*SigmaOld_tensor.a13+W_tensor.a22*SigmaOld_tensor.a23+W_tensor.a23*SigmaOld_tensor.a33) - (SigmaOld_tensor.a21*W_tensor.a13+SigmaOld_tensor.a22*W_tensor.a23+SigmaOld_tensor.a23*W_tensor.a33);
  sigma_rate.a31 = sigma_rate.a31 + (W_tensor.a31*SigmaOld_tensor.a11+W_tensor.a32*SigmaOld_tensor.a21+W_tensor.a33*SigmaOld_tensor.a31) - (SigmaOld_tensor.a31*W_tensor.a11+SigmaOld_tensor.a32*W_tensor.a21+SigmaOld_tensor.a33*W_tensor.a31);
  sigma_rate.a32 = sigma_rate.a32 + (W_tensor.a31*SigmaOld_tensor.a12+W_tensor.a32*SigmaOld_tensor.a22+W_tensor.a33*SigmaOld_tensor.a32) - (SigmaOld_tensor.a31*W_tensor.a12+SigmaOld_tensor.a32*W_tensor.a22+SigmaOld_tensor.a33*W_tensor.a32);
  sigma_rate.a33 = sigma_rate.a33 + (W_tensor.a31*SigmaOld_tensor.a13+W_tensor.a32*SigmaOld_tensor.a23+W_tensor.a33*SigmaOld_tensor.a33) - (SigmaOld_tensor.a31*W_tensor.a13+SigmaOld_tensor.a32*W_tensor.a23+SigmaOld_tensor.a33*W_tensor.a33);

  tau_tensor.a11 = SigmaOld_tensor.a11 + sigma_rate.a11*dt;
  tau_tensor.a12 = SigmaOld_tensor.a12 + sigma_rate.a12*dt;
  tau_tensor.a13 = SigmaOld_tensor.a13 + sigma_rate.a13*dt;
  tau_tensor.a21 = SigmaOld_tensor.a21 + sigma_rate.a21*dt;
  tau_tensor.a22 = SigmaOld_tensor.a22 + sigma_rate.a22*dt;
  tau_tensor.a23 = SigmaOld_tensor.a23 + sigma_rate.a23*dt;
  tau_tensor.a31 = SigmaOld_tensor.a31 + sigma_rate.a31*dt;
  tau_tensor.a32 = SigmaOld_tensor.a32 + sigma_rate.a32*dt;
  tau_tensor.a33 = SigmaOld_tensor.a33 + sigma_rate.a33*dt;
  /*
  if(isnan(tau_tensor.a11) || isinf(tau_tensor.a11)  || abs(sigma_rate.a11*dt/SigmaOld_tensor.a11)>0.5){
    tau_tensor.a11 = SigmaOld_tensor.a11;
  }
  if(isnan(tau_tensor.a12) || isinf(tau_tensor.a12) || abs(sigma_rate.a12*dt/SigmaOld_tensor.a12)>0.5){
    tau_tensor.a12 = SigmaOld_tensor.a12;
  }
  if(isnan(tau_tensor.a13) || isinf(tau_tensor.a13) || abs(sigma_rate.a13*dt/SigmaOld_tensor.a13)>0.5){
    tau_tensor.a13 = SigmaOld_tensor.a13;
  }
  if(isnan(tau_tensor.a21) || isinf(tau_tensor.a21) || abs(sigma_rate.a21*dt/SigmaOld_tensor.a21)>0.5){
    tau_tensor.a21 = SigmaOld_tensor.a21;
  }
  if(isnan(tau_tensor.a22) || isinf(tau_tensor.a22) || abs(sigma_rate.a22*dt/SigmaOld_tensor.a22)>0.5){
    tau_tensor.a22 = SigmaOld_tensor.a22;
  }
  if(isnan(tau_tensor.a23) || isinf(tau_tensor.a23) || abs(sigma_rate.a23*dt/SigmaOld_tensor.a23)>0.5){
    tau_tensor.a23 = SigmaOld_tensor.a23;
  }
  if(isnan(tau_tensor.a31) || isinf(tau_tensor.a31) || abs(sigma_rate.a31*dt/SigmaOld_tensor.a31)>0.5){
    tau_tensor.a31 = SigmaOld_tensor.a31;
  }
  if(isnan(tau_tensor.a32) || isinf(tau_tensor.a32) || abs(sigma_rate.a32*dt/SigmaOld_tensor.a32)>0.5){
    tau_tensor.a32 = SigmaOld_tensor.a32;
  }
  if(isnan(tau_tensor.a33) || isinf(tau_tensor.a33) || abs(sigma_rate.a33*dt/SigmaOld_tensor.a33)>0.5){
    tau_tensor.a33 = SigmaOld_tensor.a33;
  }
  */
  taup1_xx_xy.x = tau_tensor.a11;
  taup1_xx_xy.y = 0.5f * (tau_tensor.a12 + tau_tensor.a21);
  taup1_xz_yy.x = 0.5f * (tau_tensor.a13 + tau_tensor.a31);
  taup1_yz_zz.x = 0.5f * (tau_tensor.a23 + tau_tensor.a32);
  taup1_xz_yy.y = tau_tensor.a22;
  taup1_yz_zz.y = tau_tensor.a33;

  if (tau_tensor.a11 > 0){
    taup1_xx_xy.x = -10;
    taup1_xx_xy.y = 0;
    taup1_xz_yy.x = 0;
  } else{
    taup1_xx_xy.x = tau_tensor.a11;
    taup1_xx_xy.y = 0.5f*(tau_tensor.a12+tau_tensor.a21);
    taup1_xz_yy.x = 0.5f*(tau_tensor.a13+tau_tensor.a31);
  }
  if (tau_tensor.a22 > 0){
    taup1_yz_zz.x = 0;
    taup1_xz_yy.y = -10;
  }else{
    taup1_yz_zz.x = 0.5f*(tau_tensor.a23+tau_tensor.a32);
    taup1_xz_yy.y = tau_tensor.a22;
  }
  if (tau_tensor.a33 > 0){
    taup1_yz_zz.y = -10;
  }else{
    taup1_yz_zz.y = tau_tensor.a33;
  }

  voidRatio = voidRatio + (1+voidRatio)*(D_tensor.a11 + D_tensor.a22 + D_tensor.a33)*dt  ;

//  check whether void ratio is outside allowed range 
  TrSigma=taup1_xx_xy.x+taup1_xz_yy.y+taup1_yz_zz.y;
//  float edd = Hypo_ed0*exp(-pow((-TrSigma/Hypo_hs),Hypo_n))*1.001;
  float eii = Hypo_ei0*exp(-pow((-TrSigma/Hypo_hs),Hypo_n))*0.999;
//  if (voidRatio<edd) voidRatio=edd;
  if (voidRatio>eii) voidRatio=eii;

  if(regularize){
    taup1_xx_xy.x +=taup1_diff_xx_xy.x*dt;
    taup1_xx_xy.y +=taup1_diff_xx_xy.y*dt;
    taup1_xz_yy.x +=taup1_diff_xz_yy.x*dt;
    taup1_xz_yy.y +=taup1_diff_xz_yy.y*dt;
    taup1_yz_zz.x +=taup1_diff_yz_zz.x*dt;
    taup1_yz_zz.y +=taup1_diff_yz_zz.y*dt;
  }
}

//==============================================================================
/// Calculates the stress Tensor from elastic model
//==============================================================================
__device__ void GetStressTensorElastic(float2 &dtsrp1_xx_xy, float2 &dtsrp1_xz_yy, float2 &dtsrp1_yz_zz, float3 &dtspinrate_xyz
  ,float2 &taup1_xx_xy_old, float2 &taup1_xz_yy_old, float2 &taup1_yz_zz_old
  ,float2 &taup1_diff_xx_xy, float2 &taup1_diff_xz_yy, float2 &taup1_diff_yz_zz
  ,float2 &taup1_xx_xy, float2 &taup1_xz_yy, float2 &taup1_yz_zz
  ,double &dt, const float &lameparm2, const float &lameparm1, bool regularize)
{
  tmatrix3f W_tensor = {0, dtspinrate_xyz.x, dtspinrate_xyz.y,
                      -dtspinrate_xyz.x, 0, dtspinrate_xyz.z,
                      -dtspinrate_xyz.y, -dtspinrate_xyz.z,0};
  tmatrix3f SigmaOld_tensor= {taup1_xx_xy_old.x,  taup1_xx_xy_old.y, taup1_xz_yy_old.x, 
                              taup1_xx_xy_old.y,  taup1_xz_yy_old.y, taup1_yz_zz_old.x, 
                              taup1_xz_yy_old.x,  taup1_yz_zz_old.x, taup1_yz_zz_old.y};
  // sigma_rate = lameparm1 * Identity ^ TrD_tensor + 2 * lameparm2 * D_tensor
  float TrD_tensor = dtsrp1_xx_xy.x + dtsrp1_xz_yy.y + dtsrp1_yz_zz.y; //D_tensor_kk
  tmatrix3f sigma_rate, tau_tensor;
  sigma_rate.a11 = lameparm1 * TrD_tensor + 2 * lameparm2 * dtsrp1_xx_xy.x;
  sigma_rate.a12 = 2 * lameparm2 * dtsrp1_xx_xy.y;
  sigma_rate.a13 = 2 * lameparm2 * dtsrp1_xz_yy.x;
  sigma_rate.a21 = 2 * lameparm2 * dtsrp1_xx_xy.y;
  sigma_rate.a22 = lameparm1 * TrD_tensor + 2 * lameparm2 * dtsrp1_xz_yy.y;
  sigma_rate.a23 = 2 * lameparm2 * dtsrp1_yz_zz.x;
  sigma_rate.a31 = 2 * lameparm2 * dtsrp1_xz_yy.x;
  sigma_rate.a32 = 2 * lameparm2 * dtsrp1_yz_zz.x;
  sigma_rate.a33 = lameparm1 * TrD_tensor + 2 * lameparm2 * dtsrp1_yz_zz.y;
  
   //Rotation
  sigma_rate.a11 = sigma_rate.a11 + (W_tensor.a11*SigmaOld_tensor.a11+W_tensor.a12*SigmaOld_tensor.a21+W_tensor.a13*SigmaOld_tensor.a31) - (SigmaOld_tensor.a11*W_tensor.a11+SigmaOld_tensor.a12*W_tensor.a21+SigmaOld_tensor.a13*W_tensor.a31);
  sigma_rate.a12 = sigma_rate.a12 + (W_tensor.a11*SigmaOld_tensor.a12+W_tensor.a12*SigmaOld_tensor.a22+W_tensor.a13*SigmaOld_tensor.a32) - (SigmaOld_tensor.a11*W_tensor.a12+SigmaOld_tensor.a12*W_tensor.a22+SigmaOld_tensor.a13*W_tensor.a32);
  sigma_rate.a13 = sigma_rate.a13 + (W_tensor.a11*SigmaOld_tensor.a13+W_tensor.a12*SigmaOld_tensor.a23+W_tensor.a13*SigmaOld_tensor.a33) - (SigmaOld_tensor.a11*W_tensor.a13+SigmaOld_tensor.a12*W_tensor.a23+SigmaOld_tensor.a13*W_tensor.a33);
  sigma_rate.a21 = sigma_rate.a21 + (W_tensor.a21*SigmaOld_tensor.a11+W_tensor.a22*SigmaOld_tensor.a21+W_tensor.a23*SigmaOld_tensor.a31) - (SigmaOld_tensor.a21*W_tensor.a11+SigmaOld_tensor.a22*W_tensor.a21+SigmaOld_tensor.a23*W_tensor.a31);
  sigma_rate.a22 = sigma_rate.a22 + (W_tensor.a21*SigmaOld_tensor.a12+W_tensor.a22*SigmaOld_tensor.a22+W_tensor.a23*SigmaOld_tensor.a32) - (SigmaOld_tensor.a21*W_tensor.a12+SigmaOld_tensor.a22*W_tensor.a22+SigmaOld_tensor.a23*W_tensor.a32);
  sigma_rate.a23 = sigma_rate.a23 + (W_tensor.a21*SigmaOld_tensor.a13+W_tensor.a22*SigmaOld_tensor.a23+W_tensor.a23*SigmaOld_tensor.a33) - (SigmaOld_tensor.a21*W_tensor.a13+SigmaOld_tensor.a22*W_tensor.a23+SigmaOld_tensor.a23*W_tensor.a33);
  sigma_rate.a31 = sigma_rate.a31 + (W_tensor.a31*SigmaOld_tensor.a11+W_tensor.a32*SigmaOld_tensor.a21+W_tensor.a33*SigmaOld_tensor.a31) - (SigmaOld_tensor.a31*W_tensor.a11+SigmaOld_tensor.a32*W_tensor.a21+SigmaOld_tensor.a33*W_tensor.a31);
  sigma_rate.a32 = sigma_rate.a32 + (W_tensor.a31*SigmaOld_tensor.a12+W_tensor.a32*SigmaOld_tensor.a22+W_tensor.a33*SigmaOld_tensor.a32) - (SigmaOld_tensor.a31*W_tensor.a12+SigmaOld_tensor.a32*W_tensor.a22+SigmaOld_tensor.a33*W_tensor.a32);
  sigma_rate.a33 = sigma_rate.a33 + (W_tensor.a31*SigmaOld_tensor.a13+W_tensor.a32*SigmaOld_tensor.a23+W_tensor.a33*SigmaOld_tensor.a33) - (SigmaOld_tensor.a31*W_tensor.a13+SigmaOld_tensor.a32*W_tensor.a23+SigmaOld_tensor.a33*W_tensor.a33);

  tau_tensor.a11 = SigmaOld_tensor.a11 + sigma_rate.a11*dt;
  tau_tensor.a12 = SigmaOld_tensor.a12 + sigma_rate.a12*dt;
  tau_tensor.a13 = SigmaOld_tensor.a13 + sigma_rate.a13*dt;
  tau_tensor.a21 = SigmaOld_tensor.a21 + sigma_rate.a21*dt;
  tau_tensor.a22 = SigmaOld_tensor.a22 + sigma_rate.a22*dt;
  tau_tensor.a23 = SigmaOld_tensor.a23 + sigma_rate.a23*dt;
  tau_tensor.a31 = SigmaOld_tensor.a31 + sigma_rate.a31*dt;
  tau_tensor.a32 = SigmaOld_tensor.a32 + sigma_rate.a32*dt;
  tau_tensor.a33 = SigmaOld_tensor.a33 + sigma_rate.a33*dt;

  taup1_xx_xy.x = tau_tensor.a11;
  taup1_xx_xy.y = 0.5f * (tau_tensor.a12 + tau_tensor.a21);
  taup1_xz_yy.x = 0.5f * (tau_tensor.a13 + tau_tensor.a31);
  taup1_yz_zz.x = 0.5f * (tau_tensor.a23 + tau_tensor.a32);
  taup1_xz_yy.y = tau_tensor.a22;
  taup1_yz_zz.y = tau_tensor.a33;

  if(regularize){
    taup1_xx_xy.x +=taup1_diff_xx_xy.x*dt;
    taup1_xx_xy.y +=taup1_diff_xx_xy.y*dt;
    taup1_xz_yy.x +=taup1_diff_xz_yy.x*dt;
    taup1_xz_yy.y +=taup1_diff_xz_yy.y*dt;
    taup1_yz_zz.x +=taup1_diff_yz_zz.x*dt;
    taup1_yz_zz.y +=taup1_diff_yz_zz.y*dt;
  }

}


//==============================================================================
/// Calculates the effective visocity.
/// Calcule la viscosidad efectiva.
//==============================================================================
__device__ void KerGetEta_Effective(const typecode ppx,float tau_yield,float D_tensor_magn,float visco
  ,float m_NN,float n_NN,float &visco_etap1)
{

  if(D_tensor_magn<=ALMOSTZERO)D_tensor_magn=ALMOSTZERO;
  float miou_yield=(PHASECTE[ppx].tau_max ? PHASECTE[ppx].tau_max/(2.0f*D_tensor_magn) : (tau_yield)/(2.0f*D_tensor_magn)); //HPB will adjust eta		

  //if tau_max exists
  bool bi_region=PHASECTE[ppx].tau_max && D_tensor_magn<=PHASECTE[ppx].tau_max/(2.f*PHASECTE[ppx].Bi_multi*visco);
  if(bi_region) { //multiplier
    miou_yield=PHASECTE[ppx].Bi_multi*visco;
  }
  //Papanastasiou
  float miouPap=miou_yield *(1.f-exp(-m_NN*D_tensor_magn));
  float visco_etap1_term1=(PHASECTE[ppx].tau_max ? miou_yield : (miouPap>m_NN*tau_yield||D_tensor_magn==ALMOSTZERO ? m_NN*tau_yield : miouPap));

  //HB
  float miouHB=visco*pow(D_tensor_magn,(n_NN-1.0f));
  float visco_etap1_term2=(bi_region ? visco : (miouPap>m_NN*tau_yield||D_tensor_magn==ALMOSTZERO ? visco : miouHB));

  visco_etap1=visco_etap1_term1+visco_etap1_term2;

  /*
  //use according to you criteria
  - Herein we limit visco_etap1 at very low shear rates
  */
}

//------------------------------------------------------------------------------
/// Calclulate stress tensor.
/// Calcular tensor de estres.
//------------------------------------------------------------------------------
/*
__device__ void GetStressTensor(const tmatrix3f &D_tensor,float visco_etap1,float &I_t,float &II_t,float &J1_t
  ,float &J2_t,float &tau_tensor_magn,tmatrix3f &tau_tensor)
{
  //Stress tensor and invariant
  tau_tensor.a11=2.f*visco_etap1*(D_tensor.a11);	tau_tensor.a12=2.f*visco_etap1*D_tensor.a12;		tau_tensor.a13=2.f*visco_etap1*D_tensor.a13;
  tau_tensor.a21=2.f*visco_etap1*D_tensor.a21;		tau_tensor.a22=2.f*visco_etap1*(D_tensor.a22);	tau_tensor.a23=2.f*visco_etap1*D_tensor.a23;
  tau_tensor.a31=2.f*visco_etap1*D_tensor.a31;		tau_tensor.a32=2.f*visco_etap1*D_tensor.a32;		tau_tensor.a33=2.f*visco_etap1*(D_tensor.a33);

  //I_t - the first invariant -
  I_t=tau_tensor.a11+tau_tensor.a22+tau_tensor.a33;
  //II_t - the second invariant - expnaded form witout symetry 
  float II_t_1=tau_tensor.a11*tau_tensor.a22+tau_tensor.a22*tau_tensor.a33+tau_tensor.a11*tau_tensor.a33;
  float II_t_2=tau_tensor.a12*tau_tensor.a21+tau_tensor.a23*tau_tensor.a32+tau_tensor.a13*tau_tensor.a31;
  II_t=II_t_1-II_t_2;
  //stress tensor magnitude
  tau_tensor_magn=sqrt(II_t*II_t);

  //Main Strain rate invariants
  J1_t=I_t; J2_t=I_t*I_t-2.f*II_t;
}
*/
//##############################################################################
//# Kernels for calculating forces (Pos-Double) for non-Newtonian models.
//# Kernels para calculo de fuerzas (Pos-Double) para modelos no-Newtonianos.
//##############################################################################
//------------------------------------------------------------------------------
/// Interaction of a particle with a set of particles. Bound-Fluid/Float
/// Realiza la interaccion de una particula con un conjunto de ellas. Bound-Fluid/Float
//------------------------------------------------------------------------------
template<TpKernel tker,TpFtMode ftmode,TpVisco tvisco, bool symm>
__device__ void KerInteractionForcesBoundBox_NN
(unsigned p1,const unsigned &pini,const unsigned &pfin
  ,const float *ftomassp, float2 *tauff
  ,const float4 *poscell,const float4 *velrhop,const typecode *code,const unsigned* idp
  ,float massf,const float4 &pscellp1,const float4 &velrhop1,float &arp1,float &visc
  ,float2 &tau_sump1_xx_xy, float2 &tau_sump1_xz_yy, float2 &tau_sump1_yz_zz
  ,float4 &relative_pos_sump1, float4 &velrhop1_sum)
{
  for(int p2=pini; p2<pfin; p2++) {
    const float4 pscellp2=poscell[p2];
    float drx=pscellp1.x-pscellp2.x+CTE.poscellsize*(CEL_GetX(__float_as_int(pscellp1.w))-CEL_GetX(__float_as_int(pscellp2.w)));
    float dry=pscellp1.y-pscellp2.y+CTE.poscellsize*(CEL_GetY(__float_as_int(pscellp1.w))-CEL_GetY(__float_as_int(pscellp2.w)));
    float drz=pscellp1.z-pscellp2.z+CTE.poscellsize*(CEL_GetZ(__float_as_int(pscellp1.w))-CEL_GetZ(__float_as_int(pscellp2.w)));
    if(symm)dry=pscellp1.y+pscellp2.y+CTE.poscellsize*CEL_GetY(__float_as_int(pscellp2.w)); //<vs_syymmetry>
    const float rr2=drx*drx+dry*dry+drz*drz;
    if(rr2<=CTE.kernelsize2 && rr2>=ALMOSTZERO) {
      //-Computes kernel.
      const float fac=cufsph::GetKernel_Fac<tker>(rr2);
      const float frx=fac*drx,fry=fac*dry,frz=fac*drz; //-Gradients.

      float4 velrhop2=velrhop[p2];
      if(symm)velrhop2.y=-velrhop2.y; //<vs_syymmetry>

      float massp2 = massf;
      const typecode pp2=CODE_GetTypeValue(code[p2]);
      if(tvisco==VISCO_Hypoplasticity){
        massp2=PHASEHYPO[pp2].mass;
      }
      if(tvisco==VISCO_Elasticity){
        massp2=PHASEELASTIC[pp2].mass;
      }

      //-Obtains particle mass p2 if there are floating bodies.
      //-Obtiene masa de particula p2 en caso de existir floatings.
      float ftmassp2;    //-Contains mass of floating body or massf if fluid. | Contiene masa de particula floating o massf si es fluid.
      bool compute=true; //-Deactivated when DEM is used and is float-float or float-bound. | Se desactiva cuando se usa DEM y es float-float o float-bound.
      if(USE_FLOATING) {
        const typecode cod=code[p2];
        bool ftp2=CODE_IsFloating(cod);
        ftmassp2=(ftp2 ? ftomassp[CODE_GetTypeValue(cod)] : massp2);
        compute=!(USE_FTEXTERNAL && ftp2); //-Deactivated when DEM or Chrono is used and is bound-float. | Se desactiva cuando se usa DEM o Chrono y es bound-float.
      }

      if(compute) {
        //-Density derivative (Continuity equation).
        const float dvx=velrhop1.x-velrhop2.x,dvy=velrhop1.y-velrhop2.y,dvz=velrhop1.z-velrhop2.z;
        arp1+=(USE_FLOATING ? ftmassp2 : massp2)*(dvx*frx+dvy*fry+dvz*frz)*(velrhop1.w/velrhop2.w);

        if(tvisco!=VISCO_Artificial) {	
          float2 taup2_xx_xy=tauff[p2*3];
          float2 taup2_xz_yy=tauff[p2*3+1];
          float2 taup2_yz_zz=tauff[p2*3+2];
          const float vol_ker = fac*massp2/velrhop2.w;
          tau_sump1_xx_xy.x += taup2_xx_xy.x*vol_ker;
          tau_sump1_xx_xy.y += taup2_xx_xy.y*vol_ker;
          tau_sump1_xz_yy.x += taup2_xz_yy.x*vol_ker;
          tau_sump1_xz_yy.y += taup2_xz_yy.y*vol_ker;
          tau_sump1_yz_zz.x += taup2_yz_zz.x*vol_ker;
          tau_sump1_yz_zz.y += taup2_yz_zz.y*vol_ker;

          velrhop1_sum.x +=  velrhop2.x*vol_ker;
          velrhop1_sum.y +=  velrhop2.y*vol_ker;
          velrhop1_sum.z +=  velrhop2.z*vol_ker;

          relative_pos_sump1.x += drx*velrhop2.w*vol_ker;
          relative_pos_sump1.y += dry*velrhop2.w*vol_ker;
          relative_pos_sump1.z += drz*velrhop2.w*vol_ker;
          relative_pos_sump1.w += vol_ker;
        }

        {//===== Viscosity ===== 
          const float dot=drx*dvx+dry*dvy+drz*dvz;
          const float dot_rr2=dot/(rr2+CTE.eta2);
          visc=max(dot_rr2,visc);
        }
      }
    }
  }
}

//------------------------------------------------------------------------------
/// Particle interaction for non-Newtonian models. Bound-Fluid/Float 
/// Realiza interaccion entre particulas para modelos no-Newtonianos. Bound-Fluid/Float
//------------------------------------------------------------------------------
template<TpKernel tker,TpFtMode ftmode, TpVisco tvisco, bool symm>
__global__ void KerInteractionForcesBound_NN(unsigned n,unsigned pinit
  ,int scelldiv,int4 nc,int3 cellzero,const int2 *beginendcellfluid,const unsigned *dcell
  ,const float *ftomassp, float2 *tauff
  ,const float4 *poscell, float4 *velrhop,const typecode *code,const unsigned *idp
  ,float *viscdt,float *ar, float3 *ace, double dt)
{
  const unsigned p=blockIdx.x*blockDim.x+threadIdx.x; //-Number of thread.
  if(p<n) {
    const unsigned p1=p+pinit;      //-Number of particle.
    float visc=0,arp1=0;

    //initialize variables for integration
    float4 relative_pos_sump1 = make_float4(0,0,0,0);
    float4 velrhop1_sum = make_float4(0,0,0,0);
    float2 tau_sump1_xx_xy = make_float2(0,0);
    float2 tau_sump1_xz_yy = make_float2(0,0);
    float2 tau_sump1_yz_zz = make_float2(0,0);

    //-Loads particle p1 data.
    const float4 pscellp1=poscell[p1];
    const float4 velrhop1=velrhop[p1];
    const float3 acep1=ace[p1];
    const bool rsymp1=(symm && CEL_GetPartY(__float_as_uint(pscellp1.w))==0); //<vs_syymmetry>

    //-Obtains neighborhood search limits.
    int ini1,fin1,ini2,fin2,ini3,fin3;
    cunsearch::InitCte(dcell[p1],scelldiv,nc,cellzero,ini1,fin1,ini2,fin2,ini3,fin3);

    //jinw@need check the fluid/granular particle mass is correct or not
    //-Boundary-Fluid interaction.
    for(int c3=ini3; c3<fin3; c3+=nc.w)for(int c2=ini2; c2<fin2; c2+=nc.x) {
      unsigned pini,pfin=0; cunsearch::ParticleRange(c2,c3,ini1,fin1,beginendcellfluid,pini,pfin);
      if(pfin) {
        KerInteractionForcesBoundBox_NN<tker,ftmode,tvisco,false>(p1,pini,pfin,ftomassp,tauff,poscell,velrhop,code,idp,CTE.massf,pscellp1,velrhop1,arp1,visc,tau_sump1_xx_xy,tau_sump1_xz_yy,tau_sump1_yz_zz,relative_pos_sump1,velrhop1_sum);
        if(symm && rsymp1)KerInteractionForcesBoundBox_NN<tker,ftmode,tvisco,true >(p1,pini,pfin,ftomassp,tauff,poscell,velrhop,code,idp,CTE.massf,pscellp1,velrhop1,arp1,visc,tau_sump1_xx_xy,tau_sump1_xz_yy,tau_sump1_yz_zz,relative_pos_sump1,velrhop1_sum);
      }
    }
    //-Stores results.
    if(arp1||visc) {
      ar[p1]+=arp1;
      if(visc>viscdt[p1])viscdt[p1]=visc;
    }
    if ((tvisco == VISCO_Hypoplasticity) & (relative_pos_sump1.w != 0) ){
      const float3 Gravity= CTE.gravity;
      tauff[p1*3].x   = (tau_sump1_xx_xy.x - (Gravity.x-velrhop1.x/dt)*relative_pos_sump1.x)/relative_pos_sump1.w;
      tauff[p1*3].y   = tau_sump1_xx_xy.y /relative_pos_sump1.w;
      tauff[p1*3+1].x = tau_sump1_xz_yy.x /relative_pos_sump1.w;
      tauff[p1*3+1].y = (tau_sump1_xz_yy.y - (Gravity.y-velrhop1.y/dt)*relative_pos_sump1.y)/relative_pos_sump1.w;
      tauff[p1*3+2].x = tau_sump1_yz_zz.x /relative_pos_sump1.w;
      tauff[p1*3+2].y = (tau_sump1_yz_zz.y - (Gravity.z-velrhop1.z/dt)*relative_pos_sump1.z)/relative_pos_sump1.w;

      velrhop[p1].x = 2*velrhop1.x - velrhop1_sum.x/relative_pos_sump1.w;
      velrhop[p1].y = 2*velrhop1.y - velrhop1_sum.y/relative_pos_sump1.w;
      velrhop[p1].z = 2*velrhop1.z - velrhop1_sum.z/relative_pos_sump1.w;
    }
  }
}
//======================Start of FDA approach===================================
//------------------------------------------------------------------------------
/// Interaction of a particle with a set of particles for non-Newtonian models using the FDA approach. (Fluid/Float-Fluid/Float/Bound)
/// Realiza la interaccion de una particula con un conjunto de ellas para modelos no Newtonianos que utilizan el enfoque de la FDA. (Fluid/Float-Fluid/Float/Bound)
//------------------------------------------------------------------------------
/*
template<TpKernel tker,TpFtMode ftmode,TpVisco tvisco,TpDensity tdensity,bool shift,bool symm>
__device__ void KerInteractionForcesFluidBox_FDA(bool boundp2,unsigned p1
  ,const unsigned &pini,const unsigned &pfin,float visco,float *visco_eta
  ,const float *ftomassp,float2 *tauff
  ,const float4 *poscell,const float4 *velrhop,const typecode *code,const unsigned *idp
  ,float massp2,const typecode pp1,bool ftp1
  ,const float4 &pscellp1,const float4 &velrhop1,float pressp1
  ,float2 &taup1_xx_xy,float2 &taup1_xz_yy,float2 &taup1_yz_zz
  ,float3 &grap1_xx_xy_xz,float3 &grap1_yx_yy_yz,float3 &grap1_zx_zy_zz
  ,float3 &acep1,float &arp1,float &visc,float &visceta,float &visco_etap1,float &deltap1
  ,TpShifting shiftmode,float4 &shiftposfsp1)
{
  for(int p2=pini; p2<pfin; p2++){
    const float4 pscellp2=poscell[p2];
    float drx=pscellp1.x-pscellp2.x+CTE.poscellsize*(CEL_GetX(__float_as_int(pscellp1.w))-CEL_GetX(__float_as_int(pscellp2.w)));
    float dry=pscellp1.y-pscellp2.y+CTE.poscellsize*(CEL_GetY(__float_as_int(pscellp1.w))-CEL_GetY(__float_as_int(pscellp2.w)));
    float drz=pscellp1.z-pscellp2.z+CTE.poscellsize*(CEL_GetZ(__float_as_int(pscellp1.w))-CEL_GetZ(__float_as_int(pscellp2.w)));
    if(symm)dry=pscellp1.y+pscellp2.y+CTE.poscellsize*CEL_GetY(__float_as_int(pscellp2.w)); //<vs_syymmetry>
    const float rr2=drx*drx+dry*dry+drz*drz;
    if(rr2<=CTE.kernelsize2 && rr2>=ALMOSTZERO){
      //-Computes kernel.
      const float fac=cufsph::GetKernel_Fac<tker>(rr2);
      const float frx=fac*drx,fry=fac*dry,frz=fac*drz; //-Gradients.

      //-Obtains mass of particle p2 for NN and if any floating bodies exist.
      const typecode cod=code[p2];
      const typecode pp2=(boundp2 ? pp1 : CODE_GetTypeValue(cod)); //<vs_non-Newtonian>
      float massp2=(boundp2 ? CTE.massb : PHASEARRAY[pp2].mass); //massp2 not neccesary to go in _Box function
      //Note if you masses are very different more than a ratio of 1.3 then: massp2 = (boundp2 ? PHASEARRAY[pp1].mass : PHASEARRAY[pp2].mass);

      //-Obtiene masa de particula p2 en caso de existir floatings.
      bool ftp2=false;         //-Indicates if it is floating. | Indica si es floating.
      float ftmassp2;    //-Contains mass of floating body or massf if fluid. | Contiene masa de particula floating o massp2 si es bound o fluid.
      bool compute=true; //-Deactivated when DEM is used and is float-float or float-bound. | Se desactiva cuando se usa DEM y es float-float o float-bound.
      if(USE_FLOATING) {
        ftp2=CODE_IsFloating(cod);
        ftmassp2=(ftp2 ? ftomassp[CODE_GetTypeValue(cod)] : massp2);
#ifdef DELTA_HEAVYFLOATING
        if(ftp2 && tdensity==DDT_DDT && ftmassp2<=(massp2*1.2f))deltap1=FLT_MAX;
#else
        if(ftp2 && tdensity==DDT_DDT)deltap1=FLT_MAX;
#endif
        if(ftp2 && shift && shiftmode==SHIFT_NoBound)shiftposfsp1.x=FLT_MAX; //-Cancels shifting with floating bodies. | Con floatings anula shifting.
        compute=!(USE_FTEXTERNAL && ftp1&&(boundp2||ftp2)); //-Deactivated when DEM or Chrono is used and is float-float or float-bound. | Se desactiva cuando se usa DEM o Chrono y es float-float o float-bound.
      }

      float4 velrhop2=velrhop[p2];
      if(symm)velrhop2.y=-velrhop2.y; //<vs_syymmetry>

      //===== Aceleration ===== 
      if(compute) {
        const float pressp2=cufsph::ComputePressCte_NN(velrhop2.w,PHASEARRAY[pp2].rho,PHASEARRAY[pp2].CteB,PHASEARRAY[pp2].Gamma,PHASEARRAY[pp2].Cs0,cod);
        const float prs=(pressp1+pressp2)/(velrhop1.w*velrhop2.w)
          +(tker==KERNEL_Cubic ? cufsph::GetKernelCubic_Tensil(rr2,velrhop1.w,pressp1,velrhop2.w,pressp2) : 0);
        const float p_vpm=-prs*(USE_FLOATING ? ftmassp2 : massp2);
        acep1.x+=p_vpm*frx; acep1.y+=p_vpm*fry; acep1.z+=p_vpm*frz;
      }

      //-Density derivative (Continuity equation).
      float dvx=velrhop1.x-velrhop2.x,dvy=velrhop1.y-velrhop2.y,dvz=velrhop1.z-velrhop2.z;
      if(compute)arp1+=(USE_FLOATING ? ftmassp2 : massp2)*(dvx*frx+dvy*fry+dvz*frz)*(velrhop1.w/velrhop2.w);

      const float cbar=max(PHASEARRAY[pp2].Cs0,PHASEARRAY[pp2].Cs0);
      const float dot3=(tdensity!=DDT_None||shift ? drx*frx+dry*fry+drz*frz : 0);
      //-Density derivative (DeltaSPH Molteni).
      if(tdensity==DDT_DDT && deltap1!=FLT_MAX) {
        const float rhop1over2=velrhop1.w/velrhop2.w;
        const float visc_densi=CTE.ddtkh*cbar*(rhop1over2-1.f)/(rr2+CTE.eta2);
        const float delta=(pp1==pp2 ? visc_densi*dot3*(USE_FLOATING ? ftmassp2 : massp2) : 0); //<vs_non-Newtonian>
        //deltap1=(boundp2? FLT_MAX: deltap1+delta);
        deltap1=(boundp2 && CTE.tboundary==BC_DBC ? FLT_MAX : deltap1+delta);
      }
      //-Density Diffusion Term (Fourtakas et al 2019). //<vs_dtt2_ini>
      if((tdensity==DDT_DDT2||(tdensity==DDT_DDT2Full&&!boundp2))&&deltap1!=FLT_MAX&&!ftp2) {
        const float rh=1.f+CTE.ddtgz*drz;
        const float drhop=CTE.rhopzero*pow(rh,1.f/CTE.gamma)-CTE.rhopzero;
        const float visc_densi=CTE.ddtkh*cbar*((velrhop2.w-velrhop1.w)-drhop)/(rr2+CTE.eta2);
        const float delta=(pp1==pp2 ? visc_densi*dot3*massp2/velrhop2.w : 0); //<vs_non-Newtonian>
        deltap1=(boundp2 ? FLT_MAX : deltap1-delta);
      } //<vs_dtt2_end>		

      //-Shifting correction.
      if(shift && shiftposfsp1.x!=FLT_MAX) {
        bool heavyphase=(PHASEARRAY[pp1].mass>PHASEARRAY[pp2].mass && pp1!=pp2 ? true : false); //<vs_non-Newtonian>
        const float massrhop=(USE_FLOATING ? ftmassp2 : massp2)/velrhop2.w;
        const bool noshift=(boundp2&&(shiftmode==SHIFT_NoBound||(shiftmode==SHIFT_NoFixed && CODE_IsFixed(code[p2]))));
        shiftposfsp1.x=(noshift ? FLT_MAX : (heavyphase ? 0 : shiftposfsp1.x+massrhop*frx)); //-Removes shifting for the boundaries. | Con boundary anula shifting.
        shiftposfsp1.y+=(heavyphase ? 0 : massrhop*fry);
        shiftposfsp1.z+=(heavyphase ? 0 : massrhop*frz);
        shiftposfsp1.w-=(heavyphase ? 0 : massrhop*dot3);
      }

      //===== Viscosity ===== 
      if(compute) {
        const float dot=drx*dvx+dry*dvy+drz*dvz;
        const float dot_rr2=dot/(rr2+CTE.eta2);
        visc=max(dot_rr2,visc);  //ViscDt=max(dot/(rr2+Eta2),ViscDt);
        //<vs_non-Newtonian>
        const float visco_NN=PHASECTE[pp2].visco;
        if(tvisco==VISCO_Artificial) {//-Artificial viscosity.
          if(dot<0) {
            const float amubar=CTE.kernelh*dot_rr2;  //amubar=CTE.kernelh*dot/(rr2+CTE.eta2);
            const float robar=(velrhop1.w+velrhop2.w)*0.5f;
            const float pi_visc=(-visco_NN*cbar*amubar/robar)*(USE_FLOATING ? ftmassp2 : massp2);
            acep1.x-=pi_visc*frx; acep1.y-=pi_visc*fry; acep1.z-=pi_visc*frz;
          }
        }
        else if(tvisco==VISCO_LaminarSPS||tvisco==VISCO_ConstEq) {
          {
            //vel gradients
            if(boundp2) { //this applies no slip on stress tensor
              dvx=2.f*velrhop1.x; dvy=2.f*velrhop1.y; dvz=2.f*velrhop1.z;  //fomraly I should use the moving BC vel as ug=2ub-uf
            }
            tmatrix3f dvelp1; float div_vel;
            GetVelocityGradients_FDA(rr2,drx,dry,drz,dvx,dvy,dvz,dvelp1,div_vel);

            //Strain rate tensor 
            tmatrix3f D_tensor; float div_D_tensor; float D_tensor_magn;
            float I_D,II_D; float J1_D,J2_D;
            GetStrainRateTensor(dvelp1,div_vel,I_D,II_D,J1_D,J2_D,div_D_tensor,D_tensor_magn,D_tensor);

            //Effective viscosity
            float m_NN=PHASECTE[pp2].m_NN; float n_NN=PHASECTE[pp2].n_NN; float tau_yield=PHASECTE[pp2].tau_yield;
            KerGetEta_Effective(pp1,tau_yield,D_tensor_magn,visco_NN,m_NN,n_NN,visco_etap1);
            visceta=max(visceta,visco_etap1);

            if(tvisco==VISCO_LaminarSPS){ //-Laminar contribution.
              //Morris Operator
              const float temp=2.f*(visco_etap1)/((rr2+CTE.eta2)*velrhop2.w);  //-Note this is the Morris operator and not Lo and Shao
              const float vtemp=(USE_FLOATING ? ftmassp2 : massp2)*temp*(drx*frx+dry*fry+drz*frz);
              acep1.x+=vtemp*dvx; acep1.y+=vtemp*dvy; acep1.z+=vtemp*dvz;

            }
            else if(tvisco==VISCO_ConstEq) {
              //stress tensor tau 
              tmatrix3f tau_tensor; float tau_tensor_magn;
              float I_t,II_t; float J1_t,J2_t;
              GetStressTensor(D_tensor,visco_etap1,I_t,II_t,J1_t,J2_t,tau_tensor_magn,tau_tensor);

              //viscous forces
              float taux=(tau_tensor.a11*frx+tau_tensor.a12*fry+tau_tensor.a13*frz)/(velrhop2.w); //Morris 1997
              float tauy=(tau_tensor.a21*frx+tau_tensor.a22*fry+tau_tensor.a23*frz)/(velrhop2.w);
              float tauz=(tau_tensor.a31*frx+tau_tensor.a32*fry+tau_tensor.a33*frz)/(velrhop2.w);
              const float mtemp=(USE_FLOATING ? ftmassp2 : massp2);
              acep1.x+=taux*mtemp; acep1.y+=tauy*mtemp; acep1.z+=tauz*mtemp;
            }
          }
          //-SPS turbulence model.
          //-SPS turbulence model is disabled in v5.0 NN version
        }
      }
    }
  }
}

//------------------------------------------------------------------------------
/// Interaction between particles for non-Newtonian models using the FDA approach. Fluid/Float-Fluid/Float or Fluid/Float-Bound.
/// Includes artificial/laminar/Const Eq. viscosity and normal/DEM floating bodies.
///
/// Realiza interaccion entre particulas para modelos no-Newtonianos que utilizan el enfoque de la FDA. Fluid/Float-Fluid/Float or Fluid/Float-Bound
/// Incluye visco artificial/laminar y floatings normales/dem.
//------------------------------------------------------------------------------
template<TpKernel tker,TpFtMode ftmode,TpVisco tvisco,TpDensity tdensity,bool shift,bool symm>
__global__ void KerInteractionForcesFluid_NN_FDA(unsigned n,unsigned pinit,float viscob,float viscof,float *visco_eta
  ,int scelldiv,int4 nc,int3 cellzero,const int2 *begincell,unsigned cellfluid,const unsigned *dcell
  ,const float *ftomassp,float2 *tauff,float3 *gradvelff
  ,const float4 *poscell,const float4 *velrhop
  ,const typecode *code,const unsigned *idp
  ,float *viscdt,float *viscetadt,float *ar,float3 *ace,float *delta
  ,TpShifting shiftmode,float4 *shiftposfs)
{
  const unsigned p=blockIdx.x*blockDim.x+threadIdx.x; //-Number of particle.
  if(p<n) {
    unsigned p1=p+pinit;      //-Number of particle.
    float visc=0,arp1=0,deltap1=0;
    float3 acep1=make_float3(0,0,0);

    //-Variables for Shifting.
    float4 shiftposfsp1;
    if(shift)shiftposfsp1=shiftposfs[p1];

    //-Obtains data of particle p1 in case there are floating bodies.		
    bool ftp1;       //-Indicates if it is floating. | Indica si es floating.
    const typecode cod=code[p1];
    if(USE_FLOATING) {
      ftp1=CODE_IsFloating(cod);
      if(ftp1 && tdensity!=DDT_None)deltap1=FLT_MAX; //-DDT is not applied to floating particles.
      if(ftp1 && shift)shiftposfsp1.x=FLT_MAX; //-Shifting is not calculated for floating bodies. | Para floatings no se calcula shifting.
    }

    //-Obtains basic data of particle p1.
    const float4 pscellp1=poscell[p1];
    const float4 velrhop1=velrhop[p1];
    //<vs_non-Newtonian>
    const typecode pp1=CODE_GetTypeValue(cod);
    float visco_etap1=0;
    float visceta=0;

    //Obtain pressure		
    const float pressp1=cufsph::ComputePressCte_NN(velrhop1.w,PHASEARRAY[pp1].rho,PHASEARRAY[pp1].CteB,PHASEARRAY[pp1].Gamma,PHASEARRAY[pp1].Cs0,cod);
    const bool rsymp1=(symm && CEL_GetPartY(__float_as_uint(pscellp1.w))==0); //<vs_syymmetry>

    //-Variables for Laminar+SPS.
    float2 taup1_xx_xy,taup1_xz_yy,taup1_yz_zz;
    if(tvisco!=VISCO_Artificial) {
      taup1_xx_xy=tauff[p1*3];
      taup1_xz_yy=tauff[p1*3+1];
      taup1_yz_zz=tauff[p1*3+2];
    }
    //-Variables for Laminar+SPS (computation).
    float3 grap1_xx_xy_xz,grap1_yx_yy_yz,grap1_zx_zy_zz;
    if(tvisco!=VISCO_Artificial) {
      grap1_xx_xy_xz=make_float3(0,0,0);
      grap1_yx_yy_yz=make_float3(0,0,0);
      grap1_zx_zy_zz=make_float3(0,0,0);
    }

    //-Obtains neighborhood search limits.
    int ini1,fin1,ini2,fin2,ini3,fin3;
    cunsearch::InitCte(dcell[p1],scelldiv,nc,cellzero,ini1,fin1,ini2,fin2,ini3,fin3);

    //-Interaction with fluids.
    ini3+=cellfluid; fin3+=cellfluid;
    for(int c3=ini3; c3<fin3; c3+=nc.w)for(int c2=ini2; c2<fin2; c2+=nc.x){
      unsigned pini,pfin=0;  cunsearch::ParticleRange(c2,c3,ini1,fin1,begincell,pini,pfin);
      if(pfin){
        KerInteractionForcesFluidBox_FDA<tker,ftmode,tvisco,tdensity,shift,false>(false,p1,pini,pfin,viscof,visco_eta,ftomassp,tauff,poscell,velrhop,code,idp,CTE.massf,pp1,ftp1,pscellp1,velrhop1,pressp1,taup1_xx_xy,taup1_xz_yy,taup1_yz_zz,grap1_xx_xy_xz,grap1_yx_yy_yz,grap1_zx_zy_zz,acep1,arp1,visc,visceta,visco_etap1,deltap1,shiftmode,shiftposfsp1);
        if(symm && rsymp1)	KerInteractionForcesFluidBox_FDA<tker,ftmode,tvisco,tdensity,shift,true >(false,p1,pini,pfin,viscof,visco_eta,ftomassp,tauff,poscell,velrhop,code,idp,CTE.massf,pp1,ftp1,pscellp1,velrhop1,pressp1,taup1_xx_xy,taup1_xz_yy,taup1_yz_zz,grap1_xx_xy_xz,grap1_yx_yy_yz,grap1_zx_zy_zz,acep1,arp1,visc,visceta,visco_etap1,deltap1,shiftmode,shiftposfsp1); //<vs_syymmetry>
      }
    }
    //-Interaction with boundaries.
    ini3-=cellfluid; fin3-=cellfluid;
    for(int c3=ini3; c3<fin3; c3+=nc.w)for(int c2=ini2; c2<fin2; c2+=nc.x){
      unsigned pini,pfin=0;  cunsearch::ParticleRange(c2,c3,ini1,fin1,begincell,pini,pfin);
      if(pfin){
        KerInteractionForcesFluidBox_FDA<tker,ftmode,tvisco,tdensity,shift,false>(true,p1,pini,pfin,viscob,visco_eta,ftomassp,tauff,poscell,velrhop,code,idp,CTE.massf,pp1,ftp1,pscellp1,velrhop1,pressp1,taup1_xx_xy,taup1_xz_yy,taup1_yz_zz,grap1_xx_xy_xz,grap1_yx_yy_yz,grap1_zx_zy_zz,acep1,arp1,visc,visceta,visco_etap1,deltap1,shiftmode,shiftposfsp1);
        if(symm && rsymp1)	KerInteractionForcesFluidBox_FDA<tker,ftmode,tvisco,tdensity,shift,true >(true,p1,pini,pfin,viscob,visco_eta,ftomassp,tauff,poscell,velrhop,code,idp,CTE.massf,pp1,ftp1,pscellp1,velrhop1,pressp1,taup1_xx_xy,taup1_xz_yy,taup1_yz_zz,grap1_xx_xy_xz,grap1_yx_yy_yz,grap1_zx_zy_zz,acep1,arp1,visc,visceta,visco_etap1,deltap1,shiftmode,shiftposfsp1);  //<vs_syymmetry>
      }
    }
    //-Stores results.
    if(shift||arp1||acep1.x||acep1.y||acep1.z||visc||visceta||visco_etap1) {
      if(tdensity!=DDT_None) {
        if(delta) {
          const float rdelta=delta[p1];
          delta[p1]=(rdelta==FLT_MAX||deltap1==FLT_MAX ? FLT_MAX : rdelta+deltap1);
        }
        else if(deltap1!=FLT_MAX)arp1+=deltap1;
      }
      ar[p1]+=arp1;
      float3 r=ace[p1]; r.x+=acep1.x; r.y+=acep1.y; r.z+=acep1.z; ace[p1]=r;
      if(visc>viscdt[p1])viscdt[p1]=visc;
      if(visceta>viscetadt[p1])viscetadt[p1]=visceta;
      if(tvisco==VISCO_LaminarSPS) {
        float3 rg;
        rg=gradvelff[p1*3];		 rg=make_float3(rg.x+grap1_xx_xy_xz.x, rg.y+grap1_xx_xy_xz.y, rg.z+grap1_xx_xy_xz.z);  gradvelff[p1*3]=rg;
        rg=gradvelff[p1*3+1];  rg=make_float3(rg.x+grap1_yx_yy_yz.x, rg.y+grap1_yx_yy_yz.y, rg.z+grap1_yx_yy_yz.z);  gradvelff[p1*3+1]=rg;
        rg=gradvelff[p1*3+2];  rg=make_float3(rg.x+grap1_zx_zy_zz.x, rg.y+grap1_zx_zy_zz.y, rg.z+grap1_zx_zy_zz.z);  gradvelff[p1*3+2]=rg;
      }
      if(shift)shiftposfs[p1]=shiftposfsp1;
      //auxnn[p1] = visco_etap1; //to be used if an auxilary is needed for debug or otherwise.
    }
  }
}

//==============================================================================
/// Interaction for the force computation for non-Newtonian models using the FDA approach.
/// Interaccion para el calculo de fuerzas para modelos no-Newtonianos que utilizan el enfoque de la FDA.
//==============================================================================
template<TpKernel tker,TpFtMode ftmode,TpVisco tvisco,TpDensity tdensity,bool shift>
void Interaction_ForcesGpuT_NN_FDA(const StInterParmsg &t, int &Zhan_loop)
{
  //-Collects kernel information.
#ifndef DISABLE_BSMODES
  if(t.kerinfo) {
    cusph::Interaction_ForcesT_KerInfo<tker,ftmode,true,tdensity,shift,false>(t.kerinfo);
    return;
  }
#endif
  const StDivDataGpu &dvd=t.divdatag;
  const int2* beginendcell=dvd.beginendcell;
  //-Interaction Fluid-Fluid & Fluid-Bound.
  if(t.fluidnum) {
    dim3 sgridf=GetSimpleGridSize(t.fluidnum,t.bsfluid);
    if(t.symmetry) //<vs_syymmetry_ini>
      KerInteractionForcesFluid_NN_FDA<tker,ftmode,tvisco,tdensity,shift,true ><<<sgridf,t.bsfluid,0,t.stm>>>
      (t.fluidnum,t.fluidini,t.viscob,t.viscof,t.visco_eta,dvd.scelldiv,dvd.nc,dvd.cellzero,dvd.beginendcell,dvd.cellfluid,t.dcell
        ,t.ftomassp,(float2*)t.tau,(float3*)t.gradvel,t.poscell,t.velrhop,t.code,t.idp
        ,t.viscdt,t.viscetadt,t.ar,t.ace,t.delta,t.shiftmode,t.shiftposfs);
    else //<vs_syymmetry_end>
      KerInteractionForcesFluid_NN_FDA<tker,ftmode,tvisco,tdensity,shift,false><<<sgridf,t.bsfluid,0,t.stm>>>
      (t.fluidnum,t.fluidini,t.viscob,t.viscof,t.visco_eta,dvd.scelldiv,dvd.nc,dvd.cellzero,dvd.beginendcell,dvd.cellfluid,t.dcell
        ,t.ftomassp,(float2*)t.tau,(float3*)t.gradvel,t.poscell,t.velrhop,t.code,t.idp
        ,t.viscdt,t.viscetadt,t.ar,t.ace,t.delta,t.shiftmode,t.shiftposfs);
  }
  //-Interaction Boundary-Fluid.
  if(t.boundnum) {
    const int2* beginendcellfluid=dvd.beginendcell+dvd.cellfluid;
    dim3 sgridb=GetSimpleGridSize(t.boundnum,t.bsbound);
    //printf("bsbound:%u\n",bsbound);
    if(t.symmetry) //<vs_syymmetry_ini>
      KerInteractionForcesBound_NN<tker,ftmode,tvisco,true ><<<sgridb,t.bsbound,0,t.stm>>>
      (t.boundnum,t.boundini,dvd.scelldiv,dvd.nc,dvd.cellzero,beginendcellfluid,t.dcell
        ,t.ftomassp,(float2*)t.tau,t.poscell,t.velrhop,t.code,t.idp,t.viscdt,t.ar,t.ace,time_inc);
    else //<vs_syymmetry_end>
      KerInteractionForcesBound_NN<tker,ftmode,tvisco,false><<<sgridb,t.bsbound,0,t.stm>>>
      (t.boundnum,t.boundini,dvd.scelldiv,dvd.nc,dvd.cellzero,beginendcellfluid,t.dcell
        ,t.ftomassp,(float2*)t.tau,t.poscell,t.velrhop,t.code,t.idp,t.viscdt,t.ar,t.ace,time_inc);
  }
}
*/
//======================END of FDA==============================================

//======================Start of SPH============================================
//------------------------------------------------------------------------------
/// Interaction of a particle with a set of particles for non-Newtonian models using the SPH approach with Const Eq. (Fluid/Float-Fluid/Float/Bound)
/// Realiza la interaccion de una particula con un conjunto de ellas para modelos no-Newtonianos que utilizan el enfoque de la SPH Const. Eq. (Fluid/Float-Fluid/Float/Bound)
//------------------------------------------------------------------------------

template<TpKernel tker,TpFtMode ftmode,TpVisco tvisco,bool symm>
__device__ void KerInteractionForcesFluidBox_SPH_ConsEq(bool boundp2,const unsigned &pini,const unsigned &pfin
  ,const float *ftomassp,float2 *tauff,const float4 *poscell,const float4 *velrhop,const typecode *code
  ,const typecode pp1,bool ftp1,const float4 &pscellp1,const float4 &velrhop1,float2 &taup1_xx_xy,float2 &taup1_xz_yy,float2 &taup1_yz_zz
  ,float3 &acep1,float &visc,float3 &taup1_yy_yz_zz, unsigned p1,float4 & taup1_xx_xy_xz_sum,bool regularize)
{
  for(int p2=pini; p2<pfin; p2++) {
    const float4 pscellp2=poscell[p2];
    float drx=pscellp1.x-pscellp2.x+CTE.poscellsize*(CEL_GetX(__float_as_int(pscellp1.w))-CEL_GetX(__float_as_int(pscellp2.w)));
    float dry=pscellp1.y-pscellp2.y+CTE.poscellsize*(CEL_GetY(__float_as_int(pscellp1.w))-CEL_GetY(__float_as_int(pscellp2.w)));
    float drz=pscellp1.z-pscellp2.z+CTE.poscellsize*(CEL_GetZ(__float_as_int(pscellp1.w))-CEL_GetZ(__float_as_int(pscellp2.w)));
    if(symm)dry=pscellp1.y+pscellp2.y+CTE.poscellsize*CEL_GetY(__float_as_int(pscellp2.w)); //<vs_syymmetry>
    const float rr2=drx*drx+dry*dry+drz*drz;
    if(rr2<=CTE.kernelsize2 && rr2>=ALMOSTZERO) {
      //-Computes kernel.
      const float fac=cufsph::GetKernel_Fac<tker>(rr2);
      const float frx=fac*drx,fry=fac*dry,frz=fac*drz; //-Gradients.

      //-Obtains mass of particle p2 for NN and if any floating bodies exist.
      const typecode cod=code[p2];
      const typecode pp2=(boundp2 ? pp1 : CODE_GetTypeValue(cod)); //<vs_non-Newtonian>
      float massp2;
      if(tvisco==VISCO_Hypoplasticity){
         massp2=(boundp2 ? CTE.massb : PHASEHYPO[pp2].mass); 
      }else if(tvisco==VISCO_Elasticity){
         massp2=(boundp2 ? CTE.massb : PHASEELASTIC[pp2].mass);
      }else{
         massp2=(boundp2 ? CTE.massb : PHASEARRAY[pp2].mass); 
      }
      //Note if you masses are very different more than a ratio of 1.3 then: massp2 = (boundp2 ? PHASEARRAY[pp1].mass : PHASEARRAY[pp2].mass);

      //-Obtiene masa de particula p2 en caso de existir floatings.
      bool ftp2=false;         //-Indicates if it is floating. | Indica si es floating.
      float ftmassp2;    //-Contains mass of floating body or massf if fluid. | Contiene masa de particula floating o massp2 si es bound o fluid.
      bool compute=true; //-Deactivated when DEM is used and is float-float or float-bound. | Se desactiva cuando se usa DEM y es float-float o float-bound.
      if(USE_FLOATING) {
        const typecode cod=code[p2];
        ftp2=CODE_IsFloating(cod);
        ftmassp2=(ftp2 ? ftomassp[CODE_GetTypeValue(cod)] : massp2);
        compute=!(USE_FTEXTERNAL && ftp1&&(boundp2||ftp2)); //-Deactivated when DEM or Chrono is used and is float-float or float-bound. | Se desactiva cuando se usa DEM o Chrono y es float-float o float-bound.
      }

      float4 velrhop2=velrhop[p2];
      if(symm)velrhop2.y=-velrhop2.y; //<vs_syymmetry>

      //-velocity dvx.
      const float dvx=velrhop1.x-velrhop2.x,dvy=velrhop1.y-velrhop2.y,dvz=velrhop1.z-velrhop2.z;
      //===== Viscosity ===== 
      if(compute) {
        const float dot=drx*dvx+dry*dvy+drz*dvz;
        const float dot_rr2=dot/(rr2+CTE.eta2);
        visc=max(dot_rr2,visc);  //ViscDt=max(dot/(rr2+Eta2),ViscDt);

        //<vs_non-Newtonian>				
        float2 tau_sum_xx_xy=make_float2(0,0);
        float2 tau_sum_xz_yy=make_float2(0,0);
        float2 tau_sum_yz_zz=make_float2(0,0);
        float2 taup2_xx_xy=tauff[p2*3];
        float2 taup2_xz_yy=tauff[p2*3+1];
        float2 taup2_yz_zz=tauff[p2*3+2];

        if(boundp2 & (tvisco != VISCO_Hypoplasticity) & (tvisco != VISCO_Elasticity)){ 
          // taup2_xx_xy=taup1_xx_xy; // use (-) for slip and (+1) for no slip
          // taup2_xz_yy=taup1_xz_yy;
          // taup2_yz_zz=taup1_yz_zz;
          float MaxSigma= min(taup1_xx_xy.x, min(taup1_xz_yy.y,taup1_yz_zz.y));
          taup2_xx_xy=make_float2(MaxSigma,taup1_xx_xy.y); 
          taup2_xz_yy=make_float2(taup1_xz_yy.x,MaxSigma);
          taup2_yz_zz=make_float2(taup1_yz_zz.x,MaxSigma);
          // velrhop2.w = velrhop1.w;
        }
        //if(regularize){
        //  taup1_xx_xy_xz_sum.x += taup2_xx_xy.x*fac;
        //  taup1_xx_xy_xz_sum.y += taup2_xx_xy.y*fac;
        //  taup1_xx_xy_xz_sum.z += taup2_xz_yy.x*fac;
        //  taup1_xx_xy_xz_sum.w += fac;
        //  taup1_yy_yz_zz.x += taup2_xz_yy.y*fac;
        //  taup1_yy_yz_zz.y += taup2_yz_zz.x*fac;
        // taup1_yy_yz_zz.z += taup2_yz_zz.y*fac;
        //}

        if(tvisco==VISCO_Hypoplasticity || tvisco==VISCO_Elasticity){ // This is dummy particle method. Soleimani method not yet implemented here for GPU
          tau_sum_xx_xy.x=taup1_xx_xy.x/pow(velrhop1.w,2) + taup2_xx_xy.x/pow(velrhop2.w,2);
          tau_sum_xx_xy.y=taup1_xx_xy.y/pow(velrhop1.w,2) + taup2_xx_xy.y/pow(velrhop2.w,2);
          tau_sum_xz_yy.x=taup1_xz_yy.x/pow(velrhop1.w,2) + taup2_xz_yy.x/pow(velrhop2.w,2);
          tau_sum_xz_yy.y=taup1_xz_yy.y/pow(velrhop1.w,2) + taup2_xz_yy.y/pow(velrhop2.w,2);
          tau_sum_yz_zz.x=taup1_yz_zz.x/pow(velrhop1.w,2) + taup2_yz_zz.x/pow(velrhop2.w,2);
          tau_sum_yz_zz.y=taup1_yz_zz.y/pow(velrhop1.w,2) + taup2_yz_zz.y/pow(velrhop2.w,2);

          float taux=(tau_sum_xx_xy.x*frx+tau_sum_xx_xy.y*fry+tau_sum_xz_yy.x*frz); // as per symetric tensor grad
          float tauy=(tau_sum_xx_xy.y*frx+tau_sum_xz_yy.y*fry+tau_sum_yz_zz.x*frz);
          float tauz=(tau_sum_xz_yy.x*frx+tau_sum_yz_zz.x*fry+tau_sum_yz_zz.y*frz); 
          //store acceleration
          acep1.x+=taux*massp2; acep1.y+=tauy*massp2; acep1.z+=tauz*massp2;
        }else{
          tau_sum_xx_xy.x=taup1_xx_xy.x+taup2_xx_xy.x; tau_sum_xx_xy.y=taup1_xx_xy.y+taup2_xx_xy.y;	tau_sum_xz_yy.x=taup1_xz_yy.x+taup2_xz_yy.x;
          tau_sum_xz_yy.y=taup1_xz_yy.y+taup2_xz_yy.y;	tau_sum_yz_zz.x=taup1_yz_zz.x+taup2_yz_zz.x;
          tau_sum_yz_zz.y=taup1_yz_zz.y+taup2_yz_zz.y;

          float taux=(tau_sum_xx_xy.x*frx+tau_sum_xx_xy.y*fry+tau_sum_xz_yy.x*frz)/(velrhop2.w);
          float tauy=(tau_sum_xx_xy.y*frx+tau_sum_xz_yy.y*fry+tau_sum_yz_zz.x*frz)/(velrhop2.w);
          float tauz=(tau_sum_xz_yy.x*frx+tau_sum_yz_zz.x*fry+tau_sum_yz_zz.y*frz)/(velrhop2.w);
          //store stresses
          massp2=(USE_FLOATING ? ftmassp2 : massp2);
          acep1.x+=taux*massp2; acep1.y+=tauy*massp2; acep1.z+=tauz*massp2;
        }
      }
    }
  }
}

__global__ void KerComputePress_NN(unsigned np,unsigned npb,float2 *tauff, float *pressg){
  unsigned p=blockIdx.x*blockDim.x + threadIdx.x;
  if(p<(np-npb)){
    const unsigned p1=p+npb;
    // tau.xx, tau.yy, tau.zz
    pressg[p1] = -(tauff[p1*3].x + tauff[p1*3+1].y + tauff[p1*3+2].y)/3;
  }
}

//------------------------------------------------------------------------------
/// Fluid-Fluid interaction to diffuse stress oscillation based on Feng et al., 2021.
/// "Large deformation analysis of granular materials with stabilized and noise-free stress treatment in SPH"
//------------------------------------------------------------------------------
template<TpKernel tker,TpFtMode ftmode,TpVisco tvisco,bool symm>
__device__ void GetStressDiffusion(const unsigned &pini,const unsigned &pfin
  ,const float *ftomassp,float2 *tauff,const float4 *poscell,const float4 *velrhop,const typecode *code
  ,const typecode pp1,bool ftp1,const float4 &pscellp1,float2 &taup1_diff_xx_xy,float2 &taup1_diff_xz_yy,float2 &taup1_diff_yz_zz
  ,float2 &taup1_xx_xy_old,float2 &taup1_xz_yy_old,float2 &taup1_yz_zz_old)
{
  for(int p2=pini; p2<pfin; p2++) {
    const float4 pscellp2=poscell[p2];
    float drx=pscellp1.x-pscellp2.x+CTE.poscellsize*(CEL_GetX(__float_as_int(pscellp1.w))-CEL_GetX(__float_as_int(pscellp2.w)));
    float dry=pscellp1.y-pscellp2.y+CTE.poscellsize*(CEL_GetY(__float_as_int(pscellp1.w))-CEL_GetY(__float_as_int(pscellp2.w)));
    float drz=pscellp1.z-pscellp2.z+CTE.poscellsize*(CEL_GetZ(__float_as_int(pscellp1.w))-CEL_GetZ(__float_as_int(pscellp2.w)));
    if(symm)dry=pscellp1.y+pscellp2.y+CTE.poscellsize*CEL_GetY(__float_as_int(pscellp2.w)); //<vs_syymmetry>
    const float rr2=drx*drx+dry*dry+drz*drz;
    if(rr2<=CTE.kernelsize2 && rr2>=ALMOSTZERO) {
      //-Computes kernel.
      const float fac=cufsph::GetKernel_Fac<tker>(rr2);
      const float frx=fac*drx,fry=fac*dry,frz=fac*drz; //-Gradients.

      //-Obtains mass of particle p2 for NN and if any floating bodies exist.
      const typecode cod=code[p2];
      const typecode pp2=CODE_GetTypeValue(cod); //<vs_non-Newtonian>
      float massp2, cbar;
      const float zeta = 0.1; // Coefficient used to control the magnitude of diffusion and normally take values as 0.1 for most application. 
      if(tvisco==VISCO_Hypoplasticity){
         massp2 = PHASEHYPO[pp2].mass; cbar=PHASEHYPO[pp2].Cs0; 
      }else if(tvisco==VISCO_Elasticity){
         massp2 = PHASEELASTIC[pp2].mass; cbar=PHASEELASTIC[pp2].Cs0;
      }else{
         massp2 = PHASEARRAY[pp2].mass; cbar=PHASEARRAY[pp2].Cs0;
      }
    
      //-Obtiene masa de particula p2 en caso de existir floatings.
      bool ftp2=false;         //-Indicates if it is floating. | Indica si es floating.
      float ftmassp2;    //-Contains mass of floating body or massf if fluid. | Contiene masa de particula floating o massp2 si es bound o fluid.
      bool compute=true; //-Deactivated when DEM is used and is float-float or float-bound. | Se desactiva cuando se usa DEM y es float-float o float-bound.
      if(USE_FLOATING) {
        const typecode cod=code[p2];
        ftp2=CODE_IsFloating(cod);
        ftmassp2=(ftp2 ? ftomassp[CODE_GetTypeValue(cod)] : massp2);
        compute=!(USE_FTEXTERNAL && ftp1&&(ftp2)); //-Deactivated when DEM or Chrono is used and is float-float or float-bound. | Se desactiva cuando se usa DEM o Chrono y es float-float o float-bound.
      }
      const float rhopp2 = velrhop[p2].w;
      const float dot = drx*frx+dry*fry+drz*frz;
      const float dot_rr2=dot/(rr2+CTE.eta2)*massp2/rhopp2;
      const float k0 = 0.33333; // k0 for lateral earth pressure, kept a constant for simplicity for now. Can be k0=(1-sin(interal friction angle))
      // currently only valid for gravity on z direction. gz = -9.81.
      const float SD = 2*zeta*CTE.kernelh*cbar*dot_rr2;
      //Stress tensor at the end of previous increment
      float2 taup2_xx_xy_old=tauff[p2*3];
      float2 taup2_xz_yy_old=tauff[p2*3+1];
      float2 taup2_yz_zz_old=tauff[p2*3+2];
 
      taup1_diff_xx_xy.x += SD*(taup1_xx_xy_old.x - taup2_xx_xy_old.x + k0*rhopp2*9.81*drz); //let g be -9.81 on z for now.
      taup1_diff_xx_xy.y += SD*(taup1_xx_xy_old.y - taup2_xx_xy_old.y);
      taup1_diff_xz_yy.x += SD*(taup1_xz_yy_old.x - taup2_xz_yy_old.x);
      taup1_diff_xz_yy.y += SD*(taup1_xz_yy_old.y - taup2_xz_yy_old.y + k0*rhopp2*9.81*drz);
      taup1_diff_yz_zz.x += SD*(taup1_yz_zz_old.x - taup2_yz_zz_old.x);
      taup1_diff_yz_zz.y += SD*(taup1_yz_zz_old.y - taup2_yz_zz_old.y + k0*rhopp2*9.81*drz);
     }
    }
}

//------------------------------------------------------------------------------
/// Interaction between particles for non-Newtonian models using the SPH approach with Const. Eq. Fluid/Float-Fluid/Float or Fluid/Float-Bound.
/// Includes Const. Eq. viscosity and normal/DEM floating bodies que utilizan el enfoque de la SPH Const. Eq..
///
/// Realiza interaccion entre particulas. Fluid/Float-Fluid/Float or Fluid/Float-Bound
/// Incluye visco artificial/laminar y floatings normales/dem.
//------------------------------------------------------------------------------
template<TpKernel tker,TpFtMode ftmode,TpVisco tvisco,bool symm>
__global__ void KerInteractionForcesFluid_NN_SPH_ConsEq(unsigned n,unsigned pinit,float *visco_eta
  ,int scelldiv,int4 nc,int3 cellzero,const int2 *begincell,unsigned cellfluid,const unsigned *dcell
  ,const float *ftomassp,float2 *tauff,const float4 *poscell,const float4 *velrhop
  ,const typecode *code,float3 *ace,int Zhan_loop, bool regularize)
{
  const unsigned p=blockIdx.x*blockDim.x+threadIdx.x; //-Number of particle.
  if(p<n) {
    unsigned p1=p+pinit;      //-Number of particle.			
    float3 acep1=make_float3(0,0,0);
    // float weight_sum = 0;
    float visc=0;

    //-Obtains data of particle p1 in case there are floating bodies.
    //-Obtiene datos de particula p1 en caso de existir floatings.
    bool ftp1;       //-Indicates if it is floating. | Indica si es floating.
    const typecode cod=code[p1];
    if(USE_FLOATING) {
      const typecode cod=code[p1];
      ftp1=CODE_IsFloating(cod);
    }

    //-Obtains basic data of particle p1.
    const float4 pscellp1=poscell[p1];
    const float4 velrhop1=velrhop[p1];
    const bool rsymp1=(symm && CEL_GetPartY(__float_as_uint(pscellp1.w))==0); //<vs_syymmetry>
    //<vs_non-Newtonian>
    const typecode pp1=CODE_GetTypeValue(cod);
    // float visco_etap1=visco_eta[p1];

      //-Variables for tau.			
      float2 taup1_xx_xy=tauff[p1*3];
      float2 taup1_xz_yy=tauff[p1*3+1];
      float2 taup1_yz_zz=tauff[p1*3+2];

    //Stress Sum for regularization
[...]
      }
      if(shift)shiftposfs[p1]=shiftposfsp1;
      //auxnn[p1] = visco_etap1; // to be used if an auxilary is needed.
    }
  }
  //printf("ace[pinit].x:%f \n",ace[pinit].x);
}


//==============================================================================
template<TpKernel tker,bool symm>
__device__ void KerInteractionFluid_weight_accumulation(const unsigned &pini,const unsigned &pfin
  ,const float4 *poscell,const float4 &pscellp1
  ,float &weight_acc)
{
  for(int p2=pini; p2<pfin; p2++) {
    const float4 pscellp2=poscell[p2];
    float drx=pscellp1.x-pscellp2.x+CTE.poscellsize*(CEL_GetX(__float_as_int(pscellp1.w))-CEL_GetX(__float_as_int(pscellp2.w)));
    float dry=pscellp1.y-pscellp2.y+CTE.poscellsize*(CEL_GetY(__float_as_int(pscellp1.w))-CEL_GetY(__float_as_int(pscellp2.w)));
    float drz=pscellp1.z-pscellp2.z+CTE.poscellsize*(CEL_GetZ(__float_as_int(pscellp1.w))-CEL_GetZ(__float_as_int(pscellp2.w)));
    if(symm)dry=pscellp1.y+pscellp2.y+CTE.poscellsize*CEL_GetY(__float_as_int(pscellp2.w)); //<vs_syymmetry>
    const float rr2=drx*drx+dry*dry+drz*drz;
    if(rr2<=CTE.kernelsize2 && rr2>=ALMOSTZERO) {
      //-Computes kernel.
      const float fac=cufsph::GetKernel_Fac<tker>(rr2);
      weight_acc+=fac;
    }
  }
}
//------------------------------------------------------------------------------
/// Calculate distance for boundary condition enforcement
//------------------------------------------------------------------------------
template<TpKernel tker,TpFtMode ftmode,TpVisco tvisco,bool symm>
__global__ void KerInteractionForcesFluid_Boundary_Distance(unsigned n,unsigned pinit
  ,int scelldiv,int4 nc,int3 cellzero,const int2 *begincell,unsigned cellfluid,const unsigned *dcell
  ,const float4 *poscell, float* distance_ratio)
{
  const unsigned p=blockIdx.x*blockDim.x+threadIdx.x; //-Number of particle.
  if(p<n) {
    unsigned p1=p+pinit;      //-Number of particle.
    float weight_fluid=0,weight_bound=0;
    const float4 pscellp1=poscell[p1];
    // const bool rsymp1=(symm && CEL_GetPartY(__float_as_uint(pscellp1.w))==0); //<vs_syymmetry>

    //-Obtains neighborhood search limits.
    int ini1,fin1,ini2,fin2,ini3,fin3;
    cunsearch::InitCte(dcell[p1],scelldiv,nc,cellzero,ini1,fin1,ini2,fin2,ini3,fin3);

    //-Interaction with fluids.
    ini3+=cellfluid; fin3+=cellfluid;
    for(int c3=ini3; c3<fin3; c3+=nc.w)for(int c2=ini2; c2<fin2; c2+=nc.x) {
      unsigned pini,pfin=0; cunsearch::ParticleRange(c2,c3,ini1,fin1,begincell,pini,pfin);
      if(pfin) {
        KerInteractionFluid_weight_accumulation<tker,symm>(pini,pfin,poscell,pscellp1,weight_fluid);
      }
    }
    //-Interaction with boundaries.
    ini3-=cellfluid; fin3-=cellfluid;
    for(int c3=ini3; c3<fin3; c3+=nc.w)for(int c2=ini2; c2<fin2; c2+=nc.x) {
      unsigned pini,pfin=0; cunsearch::ParticleRange(c2,c3,ini1,fin1,begincell,pini,pfin);
      if(pfin) {
        KerInteractionFluid_weight_accumulation<tker,symm>(pini,pfin,poscell,pscellp1,weight_bound);
      }
    }

    const float chi = weight_fluid/(weight_bound + weight_fluid);
    //-Stores results.
    distance_ratio[p1]=chi;
    // if(chi<1) {
    //   printf("particle id=%d, distance_ratio = %f \n", p1, distance_ratio[p1]);
    // }
  }
}

//------------------------------------------------------------------------------
/// Particle interaction for non-Newtonian models. Bound-Fluid/Float 
/// Realiza interaccion entre particulas para modelos no-Newtonianos. Bound-Fluid/Float
//------------------------------------------------------------------------------
template<TpKernel tker,TpFtMode ftmode, TpVisco tvisco, bool symm>
__global__ void KerInteractionForcesBoundary_Fluid_Distance(unsigned n,unsigned pinit
  ,int scelldiv,int4 nc,int3 cellzero,const int2 *begincell,unsigned cellfluid,const unsigned *dcell
  ,const float4 *poscell, float* distance_ratio)
{
  const unsigned p=blockIdx.x*blockDim.x+threadIdx.x; //-Number of thread.
  if(p<n) {
    const unsigned p1=p+pinit;      //-Number of particle.
    float weight_fluid=0,weight_bound=0;
    //-Loads particle p1 data.
    const float4 pscellp1=poscell[p1];

    //-Obtains neighborhood search limits.
    int ini1,fin1,ini2,fin2,ini3,fin3;
    cunsearch::InitCte(dcell[p1],scelldiv,nc,cellzero,ini1,fin1,ini2,fin2,ini3,fin3);

    //-Interaction with fluids.
    ini3+=cellfluid; fin3+=cellfluid;
    for(int c3=ini3; c3<fin3; c3+=nc.w)for(int c2=ini2; c2<fin2; c2+=nc.x) {
      unsigned pini,pfin=0; cunsearch::ParticleRange(c2,c3,ini1,fin1,begincell,pini,pfin);
      if(pfin) {
        KerInteractionFluid_weight_accumulation<tker,symm>(pini,pfin,poscell,pscellp1,weight_fluid);
      }
    }
    //-Interaction with boundaries.
    ini3-=cellfluid; fin3-=cellfluid;
    for(int c3=ini3; c3<fin3; c3+=nc.w)for(int c2=ini2; c2<fin2; c2+=nc.x) {
      unsigned pini,pfin=0; cunsearch::ParticleRange(c2,c3,ini1,fin1,begincell,pini,pfin);
      if(pfin) {
        KerInteractionFluid_weight_accumulation<tker,symm>(pini,pfin,poscell,pscellp1,weight_bound);
      }
    }
    const float chi = weight_bound/(weight_bound + weight_fluid);
    //-Stores results.
    distance_ratio[p1]=chi;
    // if(chi<1) {
    //   printf("particle id=%d, distance_ratio = %f \n", p1, distance_ratio[p1]);
    // }
  }
}

//==============================================================================
/// Interaction for the force computation using the SPH approach.
/// Interaccion para el calculo de fuerzas que utilizan el enfoque de la SPH .
//==============================================================================
template<TpKernel tker,TpFtMode ftmode,TpVisco tvisco,TpDensity tdensity,bool shift,TpSlipMode slipmode>
void Interaction_ForcesGpuT_NN_SPH(const StInterParmsg &t,double time_inc,int &Zhan_loop)
{
  bool stop=false;
  //-Collects kernel information.

#ifndef DISABLE_BSMODES
  if(t.kerinfo) {
    cusph::Interaction_ForcesT_KerInfo<tker,ftmode,true,tdensity,shift,false>(t.kerinfo);
    return;
  }
#endif
  const StDivDataGpu &dvd=t.divdatag;
  // const int2* beginendcell=dvd.beginendcell;
  dim3 sgridf=GetSimpleGridSize(t.fluidnum,t.bsfluid);
  dim3 sgridb=GetSimpleGridSize(t.boundnum,t.bsbound);
  double dt = 0;
  
  //printf("At JSphGpu_NN_ker.cu::Interaction_ForcesGpuT_NN_SPH");
  //printf("t.velrhop: %f %f %f %f", t.velrhop[t.boundnum].x,t.velrhop[t.boundnum].y,t.velrhop[t.boundnum].z,t.velrhop[t.boundnum].w);
  //printf("t.BoundNormalg: %f %f %f", t.BoundNormalg[t.boundnum-1].x,t.BoundNormalg[t.boundnum-1].y,t.BoundNormalg[t.boundnum-1].z);
  //printf("t.void_ratio: %f", t.void_ratio[t.boundnum]);

  //-Interaction Fluid-Fluid & Fluid-Bound.
  if(t.fluidnum) { 
    if(!t.symmetry){ //<not symmetic>
      float ViscDtMax=0;
      float MaxVel=0;
      if(Zhan_loop != 2){
        KerInteractionForcesFluid_NN_SPH_PressGrad<tker,ftmode,tvisco,tdensity,shift,false ><<<sgridf,t.bsfluid,0,t.stm>>>
          (t.fluidnum,t.fluidini,dvd.scelldiv,dvd.nc,dvd.cellzero,dvd.beginendcell,dvd.cellfluid,t.dcell
            ,t.ftomassp,(float3*)t.gradvel,t.poscell,t.velrhop,t.code,t.idp
            ,t.viscdt,t.ar,t.ace,t.delta,t.shiftmode,t.shiftposfs,t.distance_ratio,ViscDtMax,MaxVel,Zhan_loop);
        //if((tvisco!=VISCO_Artificial) & (tvisco!=VISCO_Hypoplasticity) & (tvisco!=VISCO_Elasticity) ) {
        //  KerInteractionForcesFluid_NN_SPH_Visco_eta<ftmode,tvisco,false ><<<sgridf,t.bsfluid,0,t.stm>>>
        //    (t.fluidnum,t.fluidini,t.viscob,t.visco_eta,t.velrhop,dvd.scelldiv,dvd.nc,dvd.cellzero,dvd.beginendcell,dvd.cellfluid,t.dcell
        //      ,(float2*)t.d_tensor,t.w_tensor,(float3*)t.gradvel,t.code,t.idp
        //      ,t.viscetadt);
        //}
      }
      //choice of visc formulation
      if((tvisco!=VISCO_ConstEq) & (tvisco!=VISCO_Hypoplasticity) & (tvisco!=VISCO_Elasticity)){
        KerInteractionForcesFluid_NN_SPH_Morris<tker,ftmode,tvisco,false ><<<sgridf,t.bsfluid,0,t.stm>>>
        (t.fluidnum,t.fluidini,t.viscob,t.viscof,t.visco_eta,dvd.scelldiv,dvd.nc,dvd.cellzero,dvd.beginendcell,dvd.cellfluid,t.dcell
          ,t.ftomassp,t.auxnn,t.poscell,t.velrhop,t.code,t.idp
          ,t.ace);
      }else{
        if (time_inc==0){
          dt = double(CTE.cfl_number * ((CTE.kernelh) / (max(float(CTE.cs0), t.VelMax * 10.) + (CTE.kernelh)*ViscDtMax)));
        }else{
          dt = time_inc;
        }
        if(Zhan_loop!=2){
       //   // Build stress tensor
        KerInteractionForcesFluid_NN_SPH_Visco_Stress_tensor<tker,ftmode,tvisco,false ><<<sgridf,t.bsfluid,0,t.stm>>>
           (t.fluidnum,t.fluidini,t.visco_eta,dvd.scelldiv,dvd.nc,dvd.cellzero,dvd.beginendcell,dvd.cellfluid,t.dcell
             ,t.ftomassp,(float2*)t.tau,t.poscell,t.velrhop,t.void_ratio,t.code,(float3*)t.gradvel,dt,stop,t.regularize);
       //   //Get stresses. If dummay particle method, f-f &f-b; if Zhan's friction method, only f-f
        KerInteractionForcesFluid_NN_SPH_ConsEq<tker,ftmode,tvisco,false ><<<sgridf,t.bsfluid,0,t.stm>>>
            (t.fluidnum,t.fluidini,t.visco_eta,dvd.scelldiv,dvd.nc,dvd.cellzero,dvd.beginendcell,dvd.cellfluid,t.dcell
              ,t.ftomassp,(float2*)t.tau,t.poscell,t.velrhop,t.code,t.ace,Zhan_loop,t.regularize);
        }
       // // When Zhan_loop = 1: prediction step without boundary effect. Zhan_loop = 2: correction considering only the boundary effect.  
        if (Zhan_loop == 2){           
          KerInteractionForcesFluid_NN_SPH_ConsEq_Zhan_bound<tker,ftmode,tvisco,slipmode,false ><<<sgridf,t.bsfluid,0,t.stm>>>
            (t.fluidnum,t.fluidini,t.visco_eta,dvd.scelldiv,dvd.nc,dvd.cellzero,dvd.beginendcell,t.dcell
              ,t.ftomassp,(float2*)t.tau,t.poscell,t.velrhop,t.code,t.ace,t.BoundNormalg,t.BoundCornerg,t.Forceg,dt);
        }
      } 
    }
    /*
    else {//<vs_syymmetry_end> symmetry pennding implementing
      KerInteractionForcesFluid_Boundary_Distance<tker,ftmode,tvisco,false ><<<sgridf,t.bsfluid,0,t.stm>>>
      (t.fluidnum,t.fluidini,dvd.scelldiv,dvd.nc,dvd.cellzero,dvd.beginendcell,dvd.cellfluid,t.dcell
      ,t.poscell,t.distance_ratio);
      KerInteractionForcesBoundary_Fluid_Distance<tker,ftmode,tvisco,false ><<<sgridb,t.bsbound,0,t.stm>>>
      (t.boundnum,t.boundini,dvd.scelldiv,dvd.nc,dvd.cellzero,dvd.beginendcell,dvd.cellfluid,t.dcell
      ,t.poscell,t.distance_ratio);
      float ViscDtMax=0;
      float MaxVel=0;
      ///obtian the strain gradient full tensor			
      KerInteractionForcesFluid_NN_SPH_PressGrad<tker,ftmode,tvisco,tdensity,shift,false><<<sgridf,t.bsfluid,0,t.stm>>>
        (t.fluidnum,t.fluidini,dvd.scelldiv,dvd.nc,dvd.cellzero,dvd.beginendcell,dvd.cellfluid,t.dcell
          ,t.ftomassp,(float3*)t.gradvel,t.poscell,t.velrhop,t.code,t.idp
          ,t.viscdt,t.ar,t.ace,t.delta,t.shiftmode,t.shiftposfs,t.distance_ratio,ViscDtMax,MaxVel);
      //Build strain rate tensor and spin tensor and compute eta_visco 
      if(tvisco!=VISCO_Hypoplasticity )KerInteractionForcesFluid_NN_SPH_Visco_eta<ftmode,tvisco,false ><<<sgridf,t.bsfluid,0,t.stm>>>
        (t.fluidnum,t.fluidini,t.viscob,t.visco_eta,t.velrhop,dvd.scelldiv,dvd.nc,dvd.cellzero,dvd.beginendcell,dvd.cellfluid,t.dcell
          ,(float2*)t.d_tensor,t.w_tensor,(float3*)t.gradvel,t.code,t.idp
          ,t.viscetadt);
      //choice of visc formulation
      if(tvisco!=VISCO_ConstEq & tvisco!=VISCO_Hypoplasticity ){
        KerInteractionForcesFluid_NN_SPH_Morris<tker,ftmode,tvisco,false ><<<sgridf,t.bsfluid,0,t.stm>>>
        (t.fluidnum,t.fluidini,t.viscob,t.viscof,t.visco_eta,dvd.scelldiv,dvd.nc,dvd.cellzero,dvd.beginendcell,dvd.cellfluid,t.dcell
          ,t.ftomassp,t.auxnn,t.poscell,t.velrhop,t.code,t.idp
          ,t.ace);
      }else{
        if (dt==0){
          dt = double(CTE.cfl_number * (CTE.kernelh / (max(CTE.cs0, sqrt(MaxVel) * 10.) + CTE.kernelh*ViscDtMax)));
        }
        // if (dt==0) printf("dt =========0\n");
        // Build stress tensor				
        KerInteractionForcesFluid_NN_SPH_Visco_Stress_tensor<ftmode,tvisco,false ><<<sgridf,t.bsfluid,0,t.stm>>>
          (t.fluidnum,t.fluidini,t.visco_eta,dvd.scelldiv,dvd.nc,dvd.cellzero,dvd.beginendcell,dvd.cellfluid,t.dcell
            ,t.ftomassp,(float2*)t.tau,(float2*)t.d_tensor,t.velrhop,t.void_ratio,t.w_tensor,t.auxnn,t.poscell,t.velrhop,t.code,t.idp,(float3*)t.gradvel,dt,stop);
        //Get stresses contribution to the force terms
        KerInteractionForcesFluid_NN_SPH_ConsEq<tker,ftmode,tvisco,false ><<<sgridf,t.bsfluid,0,t.stm>>>
          (t.fluidnum,t.fluidini,t.viscob,t.viscof,t.visco_eta,dvd.scelldiv,dvd.nc,dvd.cellzero,dvd.beginendcell,dvd.cellfluid,t.dcell
            ,t.ftomassp,(float2*)t.tau,t.auxnn,t.poscell,t.velrhop,t.code,t.idp
            ,t.ace,regularize);
      }
    }
    */
  } 
  if (stop){
    exit(EXIT_FAILURE);
  } 
  //-Interaction Boundary-Fluid.
  /*
  if(t.boundnum & (tvisco!=VISCO_Hypoplasticity) & (tvisco!=VISCO_Elasticity)) {
    const int2* beginendcellfluid=dvd.beginendcell+dvd.cellfluid;
    //printf("bsbound:%u\n",bsbound);
    if(t.symmetry) //<vs_syymmetry_ini>
      KerInteractionForcesBound_NN<tker,ftmode,tvisco,true ><<<sgridb,t.bsbound,0,t.stm>>>
      (t.boundnum,t.boundini,dvd.scelldiv,dvd.nc,dvd.cellzero,beginendcellfluid,t.dcell
        ,t.ftomassp,(float2*)t.tau,t.poscell,t.velrhop,t.code,t.idp,t.viscdt,t.ar,t.ace,dt);
    else //<vs_syymmetry_end>
    //jinw@need work on here for boundary implementation
      KerInteractionForcesBound_NN<tker,ftmode,tvisco,false><<<sgridb,t.bsbound,0,t.stm>>>
      (t.boundnum,t.boundini,dvd.scelldiv,dvd.nc,dvd.cellzero,beginendcellfluid,t.dcell
        ,t.ftomassp,(float2*)t.tau,t.poscell,t.velrhop,t.code,t.idp,t.viscdt,t.ar,t.ace,dt);
  }
  */
}
//======================END of SPH==============================================

//======================Start of non-Newtonian Templates=======================================
//Uncomment for fast compile 
//#define FAST_COMPILATION
template<TpKernel tker,TpFtMode ftmode,TpVisco tvisco,TpDensity tdensity,bool shift,TpSlipMode slipmode> void Interaction_ForcesGpuT_NN(const StInterParmsg &t,double time_inc, int Zhan_loop) {
#ifdef FAST_COMPILATION
  if(t.tvelgrad!=VELGRAD_FDA)throw "Extra SPH Gradients options are disabled for FastCompilation...";
  //Interaction_ForcesGpuT_NN_FDA	    < tker,ftmode,tvisco,tdensity,shift>(t,Zhan_loop);
#else	
  //if(t.tvelgrad==VELGRAD_FDA) Interaction_ForcesGpuT_NN_FDA	    < tker,ftmode,tvisco,tdensity,shift>(t,Zhan_loop);
  if(t.tvelgrad==VELGRAD_SPH)	Interaction_ForcesGpuT_NN_SPH		< tker,ftmode,tvisco,tdensity,shift,slipmode>(t,time_inc,Zhan_loop);
#endif
}
//==============================================================================
template<TpKernel tker,TpFtMode ftmode,TpVisco tvisco,TpDensity tdensity,bool shift> void Interaction_ForcesGpuT_NN_gt3(const StInterParmsg &t,double time_inc, int Zhan_loop) {
#ifdef FAST_COMPILATION
  if(t.slipmode!=SLIP_Vel0)throw "Zhan's slips are disabled for FastCompilation...";
  Interaction_ForcesGpuT_NN<tker,ftmode,tvisco,tdensity,shift,SLIP_Vel0>(t,time_inc,Zhan_loop);
#else
  if(t.slipmode==SLIP_NoSlip_Zhan)		      Interaction_ForcesGpuT_NN<tker,ftmode,tvisco,tdensity,shift,SLIP_NoSlip_Zhan>(t,time_inc,Zhan_loop);
  else if(t.slipmode==SLIP_FreeSlip_Zhan)	Interaction_ForcesGpuT_NN<tker,ftmode,tvisco,tdensity,shift,SLIP_FreeSlip_Zhan>(t,time_inc,Zhan_loop);
  else if(t.slipmode==SLIP_Friction_Zhan)	Interaction_ForcesGpuT_NN<tker,ftmode,tvisco,tdensity,shift,SLIP_Friction_Zhan>(t,time_inc,Zhan_loop);
  else if(t.slipmode==SLIP_Vel0)Interaction_ForcesGpuT_NN<tker,ftmode,tvisco,tdensity,shift,SLIP_Vel0>(t,time_inc,Zhan_loop);
  else throw "Other slip modes have not been implemented";
#endif
}

//==============================================================================
template<TpKernel tker,TpFtMode ftmode,TpVisco tvisco> void Interaction_ForcesNN_gt2(const StInterParmsg &t,double time_inc,int Zhan_loop) {
#ifdef FAST_COMPILATION
  if(!t.shiftmode||t.tdensity!=DDT_DDT2Full)throw "Shifting and extra DDT are disabled for FastCompilation...";
  Interaction_ForcesGpuT_NN_gt3<tker,ftmode,tvisco,DDT_DDT2Full,true>(t,time_inc,Zhan_loop);
#else
  if(t.shiftmode) {
    const bool shift=true;
    if(t.tdensity==DDT_None)    Interaction_ForcesGpuT_NN_gt3<tker,ftmode,tvisco,DDT_None,shift>(t,time_inc,Zhan_loop);
    if(t.tdensity==DDT_DDT)     Interaction_ForcesGpuT_NN_gt3<tker,ftmode,tvisco,DDT_DDT,shift>(t,time_inc,Zhan_loop);
    if(t.tdensity==DDT_DDT2)    Interaction_ForcesGpuT_NN_gt3<tker,ftmode,tvisco,DDT_DDT2,shift>(t,time_inc,Zhan_loop);  //<vs_dtt2>
    if(t.tdensity==DDT_DDT2Full)Interaction_ForcesGpuT_NN_gt3<tker,ftmode,tvisco,DDT_DDT2Full,shift>(t,time_inc,Zhan_loop);  //<vs_dtt2>
  }
  else {
    const bool shift=false;
    if(t.tdensity==DDT_None)    Interaction_ForcesGpuT_NN_gt3<tker,ftmode,tvisco,DDT_None,shift>(t,time_inc,Zhan_loop);
    if(t.tdensity==DDT_DDT)     Interaction_ForcesGpuT_NN_gt3<tker,ftmode,tvisco,DDT_DDT,shift>(t,time_inc,Zhan_loop);
    if(t.tdensity==DDT_DDT2)    Interaction_ForcesGpuT_NN_gt3<tker,ftmode,tvisco,DDT_DDT2,shift>(t,time_inc,Zhan_loop);  //<vs_dtt2>
    if(t.tdensity==DDT_DDT2Full)Interaction_ForcesGpuT_NN_gt3<tker,ftmode,tvisco,DDT_DDT2Full,shift>(t,time_inc,Zhan_loop);  //<vs_dtt2>
  }
#endif
}

//==============================================================================
template<TpKernel tker,TpFtMode ftmode> void Interaction_ForcesNN_gt1(const StInterParmsg &t,double time_inc, int Zhan_loop) {
  //GFCheck how to add fast compilation of laminar viscosity
#ifdef FAST_COMPILATION
  if(t.tvisco!=VISCO_LaminarSPS)throw "Extra viscosity options are disabled for FastCompilation...";
  Interaction_ForcesNN_gt2<tker,ftmode,VISCO_LaminarSPS>(t,time_inc,Zhan_loop);
#else
  if(t.tvisco==VISCO_ConstEq)		      Interaction_ForcesNN_gt2<tker,ftmode,VISCO_ConstEq>(t,time_inc,Zhan_loop);
  else if(t.tvisco==VISCO_LaminarSPS)	Interaction_ForcesNN_gt2<tker,ftmode,VISCO_LaminarSPS>(t,time_inc,Zhan_loop);
  else if(t.tvisco==VISCO_Artificial)	Interaction_ForcesNN_gt2<tker,ftmode,VISCO_Artificial>(t,time_inc,Zhan_loop);
  else if(t.tvisco==VISCO_Hypoplasticity)Interaction_ForcesNN_gt2<tker,ftmode,VISCO_Hypoplasticity>(t,time_inc,Zhan_loop);
  else if(t.tvisco==VISCO_Elasticity)Interaction_ForcesNN_gt2<tker,ftmode,VISCO_Elasticity>(t,time_inc,Zhan_loop);
#endif
}
//==============================================================================

template<TpKernel tker> void Interaction_ForcesNN_gt0(const StInterParmsg &t,double time_inc, int Zhan_loop) {
#ifdef FAST_COMPILATION
  if(t.ftmode!=FTMODE_None)throw "Extra FtMode options are disabled for FastCompilation...";
  Interaction_ForcesNN_gt1<tker,FTMODE_None>(t,time_inc,Zhan_loop);
#else
  if(t.ftmode==FTMODE_None)    Interaction_ForcesNN_gt1<tker,FTMODE_None>(t,time_inc,Zhan_loop);
  else if(t.ftmode==FTMODE_Sph)Interaction_ForcesNN_gt1<tker,FTMODE_Sph>(t,time_inc,Zhan_loop);
  else if(t.ftmode==FTMODE_Ext)Interaction_ForcesNN_gt1<tker,FTMODE_Ext>(t,time_inc,Zhan_loop);
#endif 
} 

//==============================================================================
void Interaction_ForcesNN(const StInterParmsg &t,double time_inc,int Zhan_loop) {
#ifdef FAST_COMPILATION
  if(t.tkernel!=KERNEL_Wendland)throw "Extra kernels are disabled for FastCompilation...";
  Interaction_ForcesNN_gt0<KERNEL_Wendland>(t,time_inc,Zhan_loop);
#else
  if(t.tkernel==KERNEL_Wendland)     Interaction_ForcesNN_gt0<KERNEL_Wendland>(t,time_inc,Zhan_loop);
#ifndef DISABLE_KERNELS_EXTRA
  else if(t.tkernel==KERNEL_Cubic)   Interaction_ForcesNN_gt0<KERNEL_Cubic   >(t,time_inc,Zhan_loop);
#endif
#endif
}

//======================End of NN Templates=======================================

void ComputePress_NN(unsigned np, unsigned npb,tsymatrix3f *SpsTaug,float *pressg){
const unsigned npf=np-npb;
  if(npf){
    dim3 sgridf=GetSimpleGridSize(npf,SPHBSIZE);
    KerComputePress_NN <<<sgridf,SPHBSIZE>>> (np,npb,(float2*)SpsTaug,pressg);
  }
}
}//end of file